<configuration>
    <input>
        <net-file value="simple_uvar.net.xml"/>
        <route-files value="simple_uvar.rou.xml"/>
    </input>
    <time>
        <begin value="0"/>
        <end value="10000"/>
    </time>
</configuration>
