<configuration>
    <input>
        <net-file value="simple_uvar.net.xml"/>
        <route-files value="simple_uvar.rou.xml"/>
        <additional-files value="simple_uvar.parking.xml,simple_uvar.parking.routers.xml,simple_uvar.bus.stops.xml"/>
        <gui-settings-file value="simple_uvar.settings.xml"/>
    </input>
    <time>
        <begin value="0"/>
        <end value="10000"/>
    </time>
</configuration>
