<?xml version="1.0" encoding="UTF-8"?>

<!-- generated on 2022-12-11 20:28:34 by Eclipse SUMO netedit Version 1.15.0
<configuration xmlns:xsi="http://www.w3.org/2001/XMLSchema-instance" xsi:noNamespaceSchemaLocation="http://sumo.dlr.de/xsd/netconvertConfiguration.xsd">

    <input>
        <sumo-net-file value="C:\Users\Ivo Saavedra\Projects\TraSMAPy\simulation\simple_uvar\simple_uvar.net.xml"/>
    </input>

    <output>
        <output-file value="C:\Users\Ivo Saavedra\Projects\TraSMAPy\simulation\simple_uvar\simple_uvar.net.xml"/>
    </output>

    <processing>
        <geometry.min-radius.fix.railways value="false"/>
        <geometry.max-grade.fix value="false"/>
        <offset.disable-normalization value="true"/>
        <lefthand value="0"/>
    </processing>

    <junctions>
        <no-turnarounds value="true"/>
        <junctions.corner-detail value="5"/>
        <junctions.limit-turn-speed value="5.50"/>
        <rectangular-lane-cut value="0"/>
    </junctions>

    <pedestrian>
        <walkingareas value="0"/>
    </pedestrian>

    <netedit>
        <SUMOConfig-output value="C:\Users\Ivo Saavedra\Projects\TraSMAPy\simulation\simple_uvar\sim.sumocfg"/>
        <additional-files value="simple_uvar.bus.stops.xml"/>
        <route-files value="C:\Users\Ivo Saavedra\Projects\TraSMAPy\simulation\simple_uvar\simple_uvar.rou.xml"/>
    </netedit>

</configuration>
-->

<net version="1.9" junctionCornerDetail="5" limitTurnSpeed="5.50" xmlns:xsi="http://www.w3.org/2001/XMLSchema-instance" xsi:noNamespaceSchemaLocation="http://sumo.dlr.de/xsd/net_file.xsd">

    <location netOffset="0.00,0.00" convBoundary="-300.00,-932.84,2431.27,400.00" origBoundary="-10000000000.00,-10000000000.00,10000000000.00,10000000000.00" projParameter="!"/>

    <edge id=":J0_0" function="internal">
        <lane id=":J0_0_0" index="0" speed="6.75" length="8.10" shape="479.37,-77.56 477.64,-78.76 475.83,-79.24 473.93,-78.97 471.96,-77.98"/>
        <lane id=":J0_0_1" index="1" speed="7.57" length="10.42" shape="479.37,-77.56 476.63,-79.77 474.18,-81.02 472.03,-81.31 470.17,-80.63"/>
    </edge>
    <edge id=":J0_2" function="internal">
        <lane id=":J0_2_0" index="0" speed="13.89" length="18.29" shape="479.37,-77.56 475.33,-81.43 472.82,-84.38 470.89,-87.73 468.57,-92.83"/>
        <lane id=":J0_2_1" index="1" speed="13.89" length="18.29" shape="481.55,-79.90 477.79,-83.51 475.45,-86.25 473.66,-89.37 471.50,-94.12"/>
    </edge>
    <edge id=":J0_4" function="internal">
        <lane id=":J0_4_0" index="0" speed="6.55" length="7.90" shape="466.58,-85.93 468.16,-87.35 469.02,-88.97 469.16,-90.80 468.57,-92.83"/>
        <lane id=":J0_4_1" index="1" speed="8.05" length="12.42" shape="468.38,-83.28 470.85,-85.50 472.20,-88.05 472.42,-90.92 471.50,-94.12"/>
    </edge>
    <edge id=":J1_0" function="internal">
        <lane id=":J1_0_0" index="0" speed="8.00" length="9.66" shape="515.09,-60.73 513.60,-63.14 511.87,-64.84 509.92,-65.82 507.72,-66.09"/>
        <lane id=":J1_0_1" index="1" speed="9.32" length="13.36" shape="517.96,-62.14 515.93,-65.37 513.53,-67.64 510.75,-68.94 507.59,-69.28"/>
    </edge>
    <edge id=":J1_2" function="internal">
        <lane id=":J1_2_0" index="0" speed="6.53" length="8.33" shape="525.69,-72.18 523.98,-70.72 523.08,-69.03 522.98,-67.12 523.69,-64.98"/>
        <lane id=":J1_2_1" index="1" speed="7.36" length="10.85" shape="525.69,-72.18 522.79,-69.98 521.01,-67.81 520.35,-65.67 520.82,-63.56"/>
    </edge>
    <edge id=":J1_4" function="internal">
        <lane id=":J1_4_0" index="0" speed="13.89" length="18.52" shape="525.69,-72.18 520.85,-69.13 517.27,-67.36 513.41,-66.48 507.72,-66.09"/>
        <lane id=":J1_4_1" index="1" speed="13.89" length="18.52" shape="523.96,-74.88 519.55,-72.08 516.29,-70.46 512.77,-69.65 507.59,-69.28"/>
    </edge>
    <edge id=":J10_0" function="internal">
        <lane id=":J10_0_0" index="0" speed="13.89" length="14.33" shape="656.39,-546.38 642.34,-543.57"/>
        <lane id=":J10_0_1" index="1" speed="13.89" length="14.33" shape="655.76,-549.52 641.71,-546.71"/>
    </edge>
    <edge id=":J10_2" function="internal">
        <lane id=":J10_2_0" index="0" speed="8.07" length="2.38" shape="655.76,-549.52 653.40,-549.75"/>
    </edge>
    <edge id=":J10_6" function="internal">
        <lane id=":J10_6_0" index="0" speed="8.07" length="12.16" shape="653.40,-549.75 653.20,-549.77 651.06,-551.63 649.32,-555.10 647.99,-560.18"/>
    </edge>
    <edge id=":J10_3" function="internal">
        <lane id=":J10_3_0" index="0" speed="6.52" length="9.02" shape="640.46,-552.99 642.77,-553.81 644.28,-555.18 644.97,-557.11 644.85,-559.58"/>
    </edge>
    <edge id=":J10_4" function="internal">
        <lane id=":J10_4_0" index="0" speed="13.89" length="14.33" shape="640.46,-552.99 654.51,-555.80"/>
        <lane id=":J10_4_1" index="1" speed="13.89" length="14.33" shape="641.09,-549.85 655.14,-552.66"/>
    </edge>
    <edge id=":J11_0" function="internal">
        <lane id=":J11_0_0" index="0" speed="3.90" length="2.69" shape="877.41,-766.53 877.21,-767.25 876.83,-767.71 876.27,-767.93 875.53,-767.90"/>
    </edge>
    <edge id=":J11_1" function="internal">
        <lane id=":J11_1_0" index="0" speed="6.07" length="8.08" shape="874.94,-771.05 877.17,-771.14 878.85,-770.49 879.99,-769.08 880.58,-766.93"/>
    </edge>
    <edge id=":J12_0" function="internal">
        <lane id=":J12_0_0" index="0" speed="13.89" length="12.90" shape="1374.09,-357.89 1370.52,-360.23 1368.45,-362.35 1366.90,-364.98 1364.86,-368.82"/>
        <lane id=":J12_0_1" index="1" speed="13.89" length="12.90" shape="1375.69,-360.67 1372.56,-362.74 1370.77,-364.64 1369.43,-366.98 1367.65,-370.38"/>
        <lane id=":J12_0_2" index="2" speed="13.89" length="12.90" shape="1377.28,-363.45 1374.59,-365.25 1373.08,-366.93 1371.97,-368.99 1370.44,-371.94"/>
    </edge>
    <edge id=":J12_3" function="internal">
        <lane id=":J12_3_0" index="0" speed="7.15" length="9.01" shape="1362.55,-360.83 1364.36,-362.90 1365.34,-364.92 1365.51,-366.90 1364.86,-368.82"/>
        <lane id=":J12_3_1" index="1" speed="8.56" length="13.27" shape="1364.76,-358.51 1367.27,-361.46 1368.59,-364.43 1368.72,-367.40 1367.65,-370.38"/>
    </edge>
    <edge id=":J13_0" function="internal">
        <lane id=":J13_0_0" index="0" speed="6.51" length="8.99" shape="1415.82,-346.08 1414.94,-348.38 1413.53,-349.85 1411.60,-350.49 1409.15,-350.30"/>
        <lane id=":J13_0_1" index="1" speed="8.00" length="14.12" shape="1418.94,-346.80 1417.55,-350.40 1415.34,-352.71 1412.31,-353.72 1408.46,-353.42"/>
    </edge>
    <edge id=":J13_2" function="internal">
        <lane id=":J13_2_0" index="0" speed="10.10" length="11.10" shape="1426.50,-358.90 1425.33,-356.83 1424.71,-354.36 1424.67,-351.49 1425.18,-348.22"/>
        <lane id=":J13_2_1" index="1" speed="10.72" length="12.57" shape="1426.50,-358.90 1424.18,-355.57 1422.67,-352.56 1421.96,-349.87 1422.06,-347.51"/>
    </edge>
    <edge id=":J13_4" function="internal">
        <lane id=":J13_4_0" index="0" speed="13.89" length="17.85" shape="1426.50,-358.90 1422.61,-354.63 1419.14,-352.52 1415.01,-351.45 1409.15,-350.30"/>
        <lane id=":J13_4_1" index="1" speed="13.89" length="17.85" shape="1423.98,-360.87 1420.50,-357.10 1417.38,-355.30 1413.68,-354.42 1408.46,-353.42"/>
        <lane id=":J13_4_2" index="2" speed="13.89" length="17.85" shape="1421.45,-362.83 1418.39,-359.57 1415.63,-358.07 1412.35,-357.38 1407.76,-356.55"/>
    </edge>
    <edge id=":J14_0" function="internal">
        <lane id=":J14_0_0" index="0" speed="9.44" length="10.23" shape="1361.51,-419.55 1364.38,-418.64 1366.99,-418.32 1369.32,-418.60 1371.39,-419.47"/>
        <lane id=":J14_0_1" index="1" speed="10.66" length="13.19" shape="1360.32,-416.58 1363.92,-415.46 1367.25,-415.11 1370.29,-415.53 1373.04,-416.73"/>
    </edge>
    <edge id=":J14_2" function="internal">
        <lane id=":J14_2_0" index="0" speed="6.52" length="8.56" shape="1361.18,-403.74 1361.57,-406.03 1361.16,-407.95 1359.95,-409.48 1357.93,-410.64"/>
        <lane id=":J14_2_1" index="1" speed="7.35" length="11.14" shape="1361.18,-403.74 1362.01,-407.36 1361.94,-410.22 1360.98,-412.30 1359.13,-413.61"/>
    </edge>
    <edge id=":J14_4" function="internal">
        <lane id=":J14_4_0" index="0" speed="13.89" length="17.17" shape="1361.18,-403.74 1362.85,-409.28 1364.34,-413.14 1366.81,-416.22 1371.39,-419.47"/>
        <lane id=":J14_4_1" index="1" speed="13.89" length="17.17" shape="1364.22,-402.77 1365.67,-407.66 1366.93,-411.09 1369.04,-413.85 1373.04,-416.73"/>
        <lane id=":J14_4_2" index="2" speed="13.54" length="17.17" shape="1367.27,-401.79 1368.49,-406.05 1369.51,-409.05 1371.26,-411.48 1374.70,-413.99"/>
    </edge>
    <edge id=":J15_0" function="internal">
        <lane id=":J15_0_0" index="0" speed="6.59" length="7.29" shape="1433.74,-421.41 1432.60,-419.85 1432.09,-418.22 1432.20,-416.51 1432.95,-414.73"/>
        <lane id=":J15_0_1" index="1" speed="8.10" length="11.46" shape="1431.43,-423.63 1429.64,-421.18 1428.83,-418.61 1429.01,-415.92 1430.18,-413.12"/>
    </edge>
    <edge id=":J15_2" function="internal">
        <lane id=":J15_2_0" index="0" speed="7.61" length="7.82" shape="1419.76,-425.69 1421.63,-425.46 1423.43,-425.78 1425.16,-426.64 1426.81,-428.06"/>
        <lane id=":J15_2_1" index="1" speed="8.41" length="9.69" shape="1419.76,-425.69 1423.10,-424.97 1425.78,-424.76 1427.78,-425.05 1429.12,-425.84"/>
    </edge>
    <edge id=":J15_4" function="internal">
        <lane id=":J15_4_0" index="0" speed="13.74" length="15.08" shape="1419.76,-425.69 1423.60,-424.21 1427.08,-421.89 1430.20,-418.73 1432.95,-414.73"/>
        <lane id=":J15_4_1" index="1" speed="12.75" length="15.08" shape="1418.94,-422.60 1422.18,-421.34 1425.14,-419.34 1427.80,-416.60 1430.18,-413.12"/>
        <lane id=":J15_4_2" index="2" speed="11.67" length="15.08" shape="1418.12,-419.51 1420.76,-418.46 1423.19,-416.78 1425.41,-414.47 1427.41,-411.51"/>
    </edge>
    <edge id=":J17_0" function="internal">
        <lane id=":J17_0_0" index="0" speed="13.89" length="14.39" shape="383.64,-573.66 380.84,-587.77"/>
    </edge>
    <edge id=":J17_1" function="internal">
        <lane id=":J17_1_0" index="0" speed="7.98" length="4.06" shape="383.64,-573.66 383.43,-577.56 383.49,-577.71"/>
    </edge>
    <edge id=":J17_6" function="internal">
        <lane id=":J17_6_0" index="0" speed="7.98" length="10.17" shape="383.49,-577.71 384.53,-580.58 386.93,-582.71 390.63,-583.96"/>
    </edge>
    <edge id=":J17_2" function="internal">
        <lane id=":J17_2_0" index="0" speed="6.48" length="9.03" shape="391.21,-580.82 388.87,-580.02 387.34,-578.67 386.65,-576.76 386.78,-574.28"/>
    </edge>
    <edge id=":J17_3" function="internal">
        <lane id=":J17_3_0" index="0" speed="8.04" length="14.20" shape="391.21,-580.82 387.32,-580.65 384.29,-581.75 382.13,-584.13 380.84,-587.77"/>
    </edge>
    <edge id=":J17_4" function="internal">
        <lane id=":J17_4_0" index="0" speed="6.56" length="9.09" shape="383.98,-588.40 384.80,-586.07 386.19,-584.56 388.13,-583.85 390.63,-583.96"/>
    </edge>
    <edge id=":J17_5" function="internal">
        <lane id=":J17_5_0" index="0" speed="13.89" length="14.40" shape="383.98,-588.40 386.78,-574.28"/>
    </edge>
    <edge id=":J18_0" function="internal">
        <lane id=":J18_0_0" index="0" speed="13.89" length="0.10" shape="888.29,-680.09 888.29,-680.09"/>
    </edge>
    <edge id=":J18_1" function="internal">
        <lane id=":J18_1_0" index="0" speed="13.89" length="0.10" shape="891.47,-680.49 891.47,-680.49"/>
    </edge>
    <edge id=":J2_0" function="internal">
        <lane id=":J2_0_0" index="0" speed="6.62" length="7.49" shape="547.13,-96.87 545.15,-96.62 543.57,-95.85 542.39,-94.55 541.61,-92.73"/>
        <lane id=":J2_0_1" index="1" speed="8.12" length="11.72" shape="547.15,-100.07 544.05,-99.68 541.58,-98.47 539.74,-96.43 538.53,-93.58"/>
    </edge>
    <edge id=":J2_2" function="internal">
        <lane id=":J2_2_0" index="0" speed="6.58" length="7.46" shape="541.80,-110.70 542.53,-108.86 543.68,-107.54 545.23,-106.74 547.19,-106.47"/>
        <lane id=":J2_2_1" index="1" speed="7.43" length="9.76" shape="541.80,-110.70 542.84,-107.46 544.08,-105.14 545.52,-103.74 547.17,-103.27"/>
    </edge>
    <edge id=":J2_4" function="internal">
        <lane id=":J2_4_0" index="0" speed="13.89" length="17.50" shape="541.80,-110.70 543.03,-105.43 543.42,-101.69 542.96,-97.96 541.61,-92.73"/>
        <lane id=":J2_4_1" index="1" speed="13.89" length="17.50" shape="538.70,-109.92 539.82,-105.13 540.17,-101.73 539.75,-98.34 538.53,-93.58"/>
    </edge>
    <edge id=":J21_0" function="internal">
        <lane id=":J21_0_0" index="0" speed="13.89" length="14.40" shape="377.41,-604.94 374.59,-619.07"/>
    </edge>
    <edge id=":J21_1" function="internal">
        <lane id=":J21_1_0" index="0" speed="7.99" length="4.07" shape="377.41,-604.94 377.19,-608.84 377.25,-609.00"/>
    </edge>
    <edge id=":J21_6" function="internal">
        <lane id=":J21_6_0" index="0" speed="7.99" length="10.15" shape="377.25,-609.00 378.28,-611.86 380.66,-614.00 384.35,-615.28"/>
    </edge>
    <edge id=":J21_2" function="internal">
        <lane id=":J21_2_0" index="0" speed="6.49" length="9.03" shape="384.96,-612.13 382.61,-611.33 381.10,-609.96 380.41,-608.04 380.54,-605.57"/>
    </edge>
    <edge id=":J21_3" function="internal">
        <lane id=":J21_3_0" index="0" speed="8.02" length="14.20" shape="384.96,-612.13 381.06,-611.94 378.04,-613.03 375.88,-615.41 374.59,-619.07"/>
    </edge>
    <edge id=":J21_4" function="internal">
        <lane id=":J21_4_0" index="0" speed="6.53" length="9.07" shape="377.72,-619.69 378.55,-617.36 379.93,-615.85 381.86,-615.15 384.35,-615.28"/>
    </edge>
    <edge id=":J21_5" function="internal">
        <lane id=":J21_5_0" index="0" speed="13.89" length="14.40" shape="377.72,-619.69 380.54,-605.57"/>
    </edge>
    <edge id=":J22_0" function="internal">
        <lane id=":J22_0_0" index="0" speed="6.47" length="9.03" shape="630.57,-653.65 629.80,-656.01 628.47,-657.54 626.56,-658.25 624.08,-658.13"/>
    </edge>
    <edge id=":J22_1" function="internal">
        <lane id=":J22_1_0" index="0" speed="13.89" length="14.44" shape="630.57,-653.65 627.92,-667.84"/>
    </edge>
    <edge id=":J22_2" function="internal">
        <lane id=":J22_2_0" index="0" speed="13.89" length="14.51" shape="631.06,-668.47 633.73,-654.20"/>
    </edge>
    <edge id=":J22_3" function="internal">
        <lane id=":J22_3_0" index="0" speed="8.00" length="4.16" shape="631.06,-668.47 631.27,-664.57 631.18,-664.33"/>
    </edge>
    <edge id=":J22_6" function="internal">
        <lane id=":J22_6_0" index="0" speed="8.00" length="10.09" shape="631.18,-664.33 630.18,-661.55 627.78,-659.40 624.08,-658.13"/>
    </edge>
    <edge id=":J22_4" function="internal">
        <lane id=":J22_4_0" index="0" speed="6.50" length="9.06" shape="623.47,-661.27 625.83,-662.08 627.36,-663.45 628.05,-665.37 627.92,-667.84"/>
    </edge>
    <edge id=":J22_5" function="internal">
        <lane id=":J22_5_0" index="0" speed="7.97" length="14.26" shape="623.47,-661.27 627.39,-661.46 630.40,-660.34 632.51,-657.92 633.73,-654.20"/>
    </edge>
    <edge id=":J23_0" function="internal">
        <lane id=":J23_0_0" index="0" speed="13.89" length="1.45" shape="1961.92,-23.54 1961.67,-23.11 1961.49,-22.82 1961.28,-22.54 1960.97,-22.14"/>
        <lane id=":J23_0_1" index="1" speed="13.89" length="1.45" shape="1959.14,-25.13 1958.96,-24.82 1958.83,-24.61 1958.69,-24.41 1958.46,-24.13"/>
    </edge>
    <edge id=":J23_2" function="internal">
        <lane id=":J23_2_0" index="0" speed="13.89" length="0.48" shape="1953.45,-28.10 1953.49,-28.15 1953.52,-28.19 1953.54,-28.24 1953.58,-28.30"/>
        <lane id=":J23_2_1" index="1" speed="13.89" length="0.48" shape="1955.95,-26.11 1956.09,-26.28 1956.17,-26.40 1956.25,-26.53 1956.36,-26.71"/>
    </edge>
    <edge id=":J24_0" function="internal">
        <lane id=":J24_0_0" index="0" speed="8.19" length="7.46" shape="1731.54,-782.53 1730.41,-784.64 1729.21,-786.23 1727.96,-787.31 1726.64,-787.86"/>
    </edge>
    <edge id=":J24_1" function="internal">
        <lane id=":J24_1_0" index="0" speed="13.89" length="7.98" shape="1734.43,-786.13 1726.64,-787.86"/>
        <lane id=":J24_1_1" index="1" speed="13.89" length="7.98" shape="1735.12,-789.26 1727.33,-790.99"/>
    </edge>
    <edge id=":J25_0" function="internal">
        <lane id=":J25_0_0" index="0" speed="6.08" length="7.76" shape="487.29,-566.34 487.38,-564.21 486.76,-562.57 485.44,-561.42 483.43,-560.74"/>
    </edge>
    <edge id=":J25_1" function="internal">
        <lane id=":J25_1_0" index="0" speed="3.90" length="2.59" shape="482.86,-563.89 483.53,-564.12 483.97,-564.50 484.17,-565.05 484.15,-565.76"/>
    </edge>
    <edge id=":J26_0" function="internal">
        <lane id=":J26_0_0" index="0" speed="6.50" length="9.03" shape="479.41,-591.50 478.62,-593.85 477.27,-595.38 475.36,-596.09 472.89,-595.99"/>
    </edge>
    <edge id=":J26_1" function="internal">
        <lane id=":J26_1_0" index="0" speed="8.03" length="14.19" shape="479.41,-591.50 479.25,-595.39 480.37,-598.40 482.75,-600.55 486.42,-601.81"/>
    </edge>
    <edge id=":J26_2" function="internal">
        <lane id=":J26_2_0" index="0" speed="6.54" length="9.06" shape="487.02,-598.67 484.69,-597.86 483.17,-596.49 482.46,-594.57 482.56,-592.08"/>
    </edge>
    <edge id=":J26_3" function="internal">
        <lane id=":J26_3_0" index="0" speed="13.89" length="14.39" shape="487.02,-598.67 472.89,-595.99"/>
    </edge>
    <edge id=":J26_4" function="internal">
        <lane id=":J26_4_0" index="0" speed="13.89" length="14.36" shape="472.30,-599.14 486.42,-601.81"/>
    </edge>
    <edge id=":J26_5" function="internal">
        <lane id=":J26_5_0" index="0" speed="8.00" length="4.04" shape="472.30,-599.14 476.19,-599.30 476.33,-599.25"/>
    </edge>
    <edge id=":J26_6" function="internal">
        <lane id=":J26_6_0" index="0" speed="8.00" length="10.16" shape="476.33,-599.25 479.20,-598.18 481.32,-595.77 482.56,-592.08"/>
    </edge>
    <edge id=":J27_0" function="internal">
        <lane id=":J27_0_0" index="0" speed="13.89" length="14.43" shape="390.65,-538.20 387.83,-552.35"/>
    </edge>
    <edge id=":J27_1" function="internal">
        <lane id=":J27_1_0" index="0" speed="7.97" length="4.10" shape="390.65,-538.20 390.43,-542.12 390.49,-542.29"/>
    </edge>
    <edge id=":J27_6" function="internal">
        <lane id=":J27_6_0" index="0" speed="7.97" length="10.17" shape="390.49,-542.29 391.52,-545.14 393.93,-547.27 397.65,-548.51"/>
    </edge>
    <edge id=":J27_2" function="internal">
        <lane id=":J27_2_0" index="0" speed="6.46" length="9.03" shape="398.22,-545.36 395.86,-544.57 394.34,-543.23 393.65,-541.31 393.79,-538.83"/>
    </edge>
    <edge id=":J27_3" function="internal">
        <lane id=":J27_3_0" index="0" speed="8.06" length="14.23" shape="398.22,-545.36 394.30,-545.20 391.27,-546.32 389.11,-548.70 387.83,-552.35"/>
    </edge>
    <edge id=":J27_4" function="internal">
        <lane id=":J27_4_0" index="0" speed="6.57" length="9.13" shape="390.97,-552.96 391.79,-550.63 393.18,-549.11 395.13,-548.41 397.65,-548.51"/>
    </edge>
    <edge id=":J27_5" function="internal">
        <lane id=":J27_5_0" index="0" speed="13.89" length="14.41" shape="390.97,-552.96 393.79,-538.83"/>
    </edge>
    <edge id=":J28_0" function="internal">
        <lane id=":J28_0_0" index="0" speed="7.30" length="4.13" shape="1736.64,-751.57 1737.46,-752.46 1737.91,-753.19 1738.11,-754.02 1738.19,-755.23"/>
    </edge>
    <edge id=":J28_1" function="internal">
        <lane id=":J28_1_0" index="0" speed="13.89" length="4.24" shape="1738.95,-749.35 1741.90,-752.40"/>
    </edge>
    <edge id=":J29_0" function="internal">
        <lane id=":J29_0_0" index="0" speed="13.89" length="1.03" shape="97.34,4.13 97.23,4.02 97.15,3.95 97.06,3.90 96.92,3.83"/>
        <lane id=":J29_0_1" index="1" speed="12.11" length="1.03" shape="99.60,1.87 99.28,1.54 99.03,1.34 98.76,1.18 98.36,0.97"/>
    </edge>
    <edge id=":J29_2" function="internal">
        <lane id=":J29_2_0" index="0" speed="13.89" length="3.10" shape="101.22,-4.76 102.17,-4.27 102.80,-3.88 103.36,-3.41 104.13,-2.66"/>
        <lane id=":J29_2_1" index="1" speed="13.89" length="3.10" shape="99.79,-1.90 100.47,-1.55 100.92,-1.27 101.32,-0.93 101.87,-0.40"/>
    </edge>
    <edge id=":J3_0" function="internal">
        <lane id=":J3_0_0" index="0" speed="6.57" length="7.48" shape="526.25,-145.68 525.59,-143.80 525.58,-142.05 526.23,-140.42 527.53,-138.92"/>
        <lane id=":J3_0_1" index="1" speed="8.09" length="11.76" shape="523.40,-147.14 522.36,-144.19 522.35,-141.44 523.36,-138.88 525.41,-136.52"/>
    </edge>
    <edge id=":J3_2" function="internal">
        <lane id=":J3_2_0" index="0" speed="7.29" length="8.06" shape="511.31,-146.00 513.27,-146.14 514.99,-146.86 516.47,-148.17 517.71,-150.06"/>
        <lane id=":J3_2_1" index="1" speed="8.08" length="10.08" shape="511.31,-146.00 514.75,-145.95 517.43,-146.37 519.37,-147.25 520.56,-148.60"/>
    </edge>
    <edge id=":J3_4" function="internal">
        <lane id=":J3_4_0" index="0" speed="13.89" length="17.20" shape="511.31,-146.00 516.64,-145.44 520.24,-144.41 523.44,-142.40 527.53,-138.92"/>
        <lane id=":J3_4_1" index="1" speed="13.89" length="17.20" shape="511.07,-142.81 515.78,-142.31 518.97,-141.39 521.79,-139.61 525.41,-136.52"/>
    </edge>
    <edge id=":J30_0" function="internal">
        <lane id=":J30_0_0" index="0" speed="13.89" length="25.10" shape="211.22,110.98 205.14,107.88 199.93,104.88 195.08,101.40 190.04,96.83"/>
        <lane id=":J30_0_1" index="1" speed="13.89" length="25.10" shape="212.66,108.12 206.70,105.11 201.78,102.32 197.21,99.04 192.31,94.57"/>
    </edge>
    <edge id=":J30_2" function="internal">
        <lane id=":J30_2_0" index="0" speed="8.81" length="5.34" shape="212.66,108.12 208.24,105.11"/>
    </edge>
    <edge id=":J30_8" function="internal">
        <lane id=":J30_8_0" index="0" speed="8.81" length="18.88" shape="208.24,105.11 206.65,104.04 204.45,99.71 206.07,95.13 211.49,90.30"/>
    </edge>
    <edge id=":J30_3" function="internal">
        <lane id=":J30_3_0" index="0" speed="5.68" length="9.23" shape="215.07,95.61 213.01,97.45 212.39,99.19 213.23,100.84 215.52,102.39"/>
    </edge>
    <edge id=":J30_4" function="internal">
        <lane id=":J30_4_0" index="0" speed="10.82" length="22.92" shape="213.28,92.96 206.92,96.47 201.30,97.91 196.43,97.28 192.31,94.57"/>
    </edge>
    <edge id=":J30_5" function="internal">
        <lane id=":J30_5_0" index="0" speed="8.58" length="14.07" shape="196.83,90.04 199.05,91.31 201.93,91.33 205.48,90.11 209.70,87.65"/>
    </edge>
    <edge id=":J30_6" function="internal">
        <lane id=":J30_6_0" index="0" speed="13.89" length="23.06" shape="196.83,90.04 201.48,94.33 205.47,97.19 209.82,99.57 215.52,102.39"/>
        <lane id=":J30_6_1" index="1" speed="13.89" length="23.06" shape="194.57,92.31 199.34,96.68 203.63,99.76 208.26,102.34 214.09,105.25"/>
    </edge>
    <edge id=":J31_0" function="internal">
        <lane id=":J31_0_0" index="0" speed="13.89" length="2.10" shape="599.52,304.83 598.81,304.65 598.34,304.50 597.88,304.30 597.23,303.98"/>
        <lane id=":J31_0_1" index="1" speed="13.89" length="2.10" shape="600.29,301.72 599.79,301.59 599.45,301.49 599.12,301.35 598.66,301.12"/>
    </edge>
    <edge id=":J31_2" function="internal">
        <lane id=":J31_2_0" index="0" speed="13.89" length="0.70" shape="601.52,295.39 601.61,295.44 601.68,295.47 601.75,295.49 601.85,295.51"/>
        <lane id=":J31_2_1" index="1" speed="13.89" length="0.70" shape="600.09,298.25 600.37,298.39 600.56,298.48 600.77,298.54 601.07,298.62"/>
    </edge>
    <edge id=":J32_0" function="internal">
        <lane id=":J32_0_0" index="0" speed="13.89" length="3.73" shape="1001.92,404.57 1000.64,404.74 999.75,404.77 998.87,404.65 997.62,404.35"/>
        <lane id=":J32_0_1" index="1" speed="11.88" length="3.73" shape="1001.47,401.41 1000.55,401.53 999.92,401.55 999.29,401.46 998.40,401.25"/>
    </edge>
    <edge id=":J32_2" function="internal">
        <lane id=":J32_2_0" index="0" speed="13.89" length="1.24" shape="999.95,395.04 1000.13,395.08 1000.25,395.10 1000.38,395.09 1000.56,395.07"/>
        <lane id=":J32_2_1" index="1" speed="9.30" length="1.24" shape="999.17,398.14 999.71,398.27 1000.09,398.32 1000.47,398.31 1001.01,398.24"/>
    </edge>
    <edge id=":J33_0" function="internal">
        <lane id=":J33_0_0" index="0" speed="13.89" length="28.10" shape="1711.71,292.94 1706.57,298.21 1700.57,302.26 1693.88,305.10 1686.67,306.75"/>
        <lane id=":J33_0_1" index="1" speed="13.89" length="28.10" shape="1709.20,290.95 1704.38,296.04 1699.09,299.68 1693.11,302.12 1686.21,303.59"/>
    </edge>
    <edge id=":J33_2" function="internal">
        <lane id=":J33_2_0" index="0" speed="9.08" length="6.45" shape="1709.20,290.95 1704.56,295.25 1704.44,295.28"/>
    </edge>
    <edge id=":J33_8" function="internal">
        <lane id=":J33_8_0" index="0" speed="9.08" length="16.56" shape="1704.44,295.28 1699.95,296.37 1695.37,294.33 1690.82,289.11"/>
    </edge>
    <edge id=":J33_3" function="internal">
        <lane id=":J33_3_0" index="0" speed="6.22" length="10.12" shape="1696.14,285.56 1698.22,288.01 1700.25,289.06 1702.23,288.72 1704.18,286.98"/>
    </edge>
    <edge id=":J33_4" function="internal">
        <lane id=":J33_4_0" index="0" speed="8.82" length="23.41" shape="1693.48,287.33 1696.50,293.56 1696.29,298.34 1692.86,301.68 1686.21,303.59"/>
    </edge>
    <edge id=":J33_5" function="internal">
        <lane id=":J33_5_0" index="0" speed="5.76" length="9.17" shape="1685.31,297.25 1687.91,296.51 1689.26,295.20 1689.34,293.32 1688.15,290.88"/>
    </edge>
    <edge id=":J33_6" function="internal">
        <lane id=":J33_6_0" index="0" speed="13.89" length="23.45" shape="1685.31,297.25 1691.56,296.15 1696.13,294.53 1700.00,291.70 1704.18,286.98"/>
        <lane id=":J33_6_1" index="1" speed="13.89" length="23.45" shape="1685.76,300.42 1692.33,299.13 1697.61,297.10 1702.19,293.87 1706.69,288.97"/>
    </edge>
    <edge id=":J34_0" function="internal">
        <lane id=":J34_0_0" index="0" speed="13.89" length="29.27" shape="1999.59,-110.51 2000.01,-105.20 1999.63,-97.64 1998.13,-89.38 1995.23,-81.95"/>
    </edge>
    <edge id=":J34_1" function="internal">
        <lane id=":J34_1_0" index="0" speed="10.65" length="25.83" shape="1999.59,-110.51 1999.39,-105.12 1996.49,-100.72 1990.90,-97.31 1982.62,-94.89"/>
    </edge>
    <edge id=":J34_2" function="internal">
        <lane id=":J34_2_0" index="0" speed="9.11" length="18.68" shape="1981.36,-101.17 1988.36,-102.92 1993.20,-104.96 1995.89,-107.28 1996.42,-109.89"/>
    </edge>
    <edge id=":J34_3" function="internal">
        <lane id=":J34_3_0" index="0" speed="8.25" length="23.41" shape="1981.99,-98.03 1988.42,-97.80 1992.72,-94.75 1994.26,-89.71 1992.45,-83.53"/>
    </edge>
    <edge id=":J34_4" function="internal">
        <lane id=":J34_4_0" index="0" speed="5.51" length="9.55" shape="1986.89,-86.70 1988.06,-89.46 1987.84,-91.23 1986.24,-91.99 1983.25,-91.75"/>
        <lane id=":J34_4_1" index="1" speed="7.39" length="18.48" shape="1989.67,-85.12 1991.93,-90.46 1991.51,-93.87 1988.40,-95.35 1982.62,-94.89"/>
    </edge>
    <edge id=":J34_6" function="internal">
        <lane id=":J34_6_0" index="0" speed="13.89" length="26.01" shape="1989.67,-85.12 1992.95,-91.96 1995.27,-98.92 1996.47,-105.17 1996.42,-109.89"/>
    </edge>
    <edge id=":J35_0" function="internal">
        <lane id=":J35_0_0" index="0" speed="6.08" length="7.82" shape="1658.56,-101.06 1658.43,-103.20 1659.02,-104.86 1660.33,-106.04 1662.36,-106.74"/>
    </edge>
    <edge id=":J35_1" function="internal">
        <lane id=":J35_1_0" index="0" speed="3.90" length="2.61" shape="1662.96,-103.60 1662.28,-103.37 1661.85,-102.97 1661.65,-102.42 1661.69,-101.70"/>
    </edge>
    <edge id=":J36_0" function="internal">
        <lane id=":J36_0_0" index="0" speed="3.90" length="2.58" shape="1986.01,-163.68 1985.78,-164.35 1985.39,-164.78 1984.84,-164.98 1984.14,-164.95"/>
    </edge>
    <edge id=":J36_1" function="internal">
        <lane id=":J36_1_0" index="0" speed="6.08" length="7.73" shape="1983.54,-168.09 1985.65,-168.19 1987.30,-167.59 1988.47,-166.29 1989.16,-164.29"/>
    </edge>
    <edge id=":J37_0" function="internal">
        <lane id=":J37_0_0" index="0" speed="13.89" length="14.08" shape="1665.23,-67.40 1662.65,-81.24"/>
    </edge>
    <edge id=":J37_1" function="internal">
        <lane id=":J37_1_0" index="0" speed="8.02" length="3.83" shape="1665.23,-67.40 1665.14,-71.22"/>
    </edge>
    <edge id=":J37_6" function="internal">
        <lane id=":J37_6_0" index="0" speed="8.02" length="10.19" shape="1665.14,-71.22 1666.29,-74.19 1668.68,-76.28 1672.31,-77.52"/>
    </edge>
    <edge id=":J37_2" function="internal">
        <lane id=":J37_2_0" index="0" speed="6.53" length="8.94" shape="1672.91,-74.38 1670.59,-73.59 1669.07,-72.25 1668.33,-70.36 1668.39,-67.92"/>
    </edge>
    <edge id=":J37_3" function="internal">
        <lane id=":J37_3_0" index="0" speed="8.00" length="14.02" shape="1672.91,-74.38 1669.08,-74.20 1666.09,-75.29 1663.95,-77.63 1662.65,-81.24"/>
    </edge>
    <edge id=":J37_4" function="internal">
        <lane id=":J37_4_0" index="0" speed="6.51" length="8.92" shape="1665.78,-81.89 1666.61,-79.59 1667.97,-78.10 1669.87,-77.41 1672.31,-77.52"/>
    </edge>
    <edge id=":J37_5" function="internal">
        <lane id=":J37_5_0" index="0" speed="13.89" length="14.21" shape="1665.78,-81.89 1668.39,-67.92"/>
    </edge>
    <edge id=":J39_0" function="internal">