<?xml version="1.0" encoding="UTF-8"?>

<!-- generated on 2022-12-10 12:29:54 by Eclipse SUMO netedit Version 1.14.0
<configuration xmlns:xsi="http://www.w3.org/2001/XMLSchema-instance" xsi:noNamespaceSchemaLocation="http://sumo.dlr.de/xsd/netconvertConfiguration.xsd">

    <input>
        <sumo-net-file value="/home/isaav/Projects/TraSMAPy/simulation/simple_uvar/simple_uvar.net.xml"/>
    </input>

    <output>
        <output-file value="/home/isaav/Projects/TraSMAPy/simulation/simple_uvar/simple_uvar.net.xml"/>
    </output>

    <processing>
        <geometry.min-radius.fix.railways value="false"/>
        <geometry.max-grade.fix value="false"/>
        <offset.disable-normalization value="true"/>
        <lefthand value="false"/>
    </processing>

    <junctions>
        <no-turnarounds value="true"/>
        <junctions.corner-detail value="5"/>
        <junctions.limit-turn-speed value="5.5"/>
        <rectangular-lane-cut value="false"/>
    </junctions>

    <pedestrian>
        <walkingareas value="false"/>
    </pedestrian>

    <netedit>
        <additional-files value="/home/isaav/Projects/TraSMAPy/simulation/simple_uvar/simple_uvar.parking.xml"/>
    </netedit>

</configuration>
-->

<net version="1.9" junctionCornerDetail="5" limitTurnSpeed="5.50" xmlns:xsi="http://www.w3.org/2001/XMLSchema-instance" xsi:noNamespaceSchemaLocation="http://sumo.dlr.de/xsd/net_file.xsd">

    <location netOffset="0.00,0.00" convBoundary="-300.00,-932.84,2431.27,400.00" origBoundary="-10000000000.00,-10000000000.00,10000000000.00,10000000000.00" projParameter="!"/>

    <edge id=":J0_0" function="internal">
        <lane id=":J0_0_0" index="0" speed="6.75" length="8.10" shape="479.37,-77.56 477.64,-78.76 475.83,-79.24 473.93,-78.97 471.96,-77.98"/>
        <lane id=":J0_0_1" index="1" speed="7.57" length="10.42" shape="479.37,-77.56 476.63,-79.77 474.18,-81.02 472.03,-81.31 470.17,-80.63"/>
    </edge>
    <edge id=":J0_2" function="internal">
        <lane id=":J0_2_0" index="0" speed="13.89" length="18.29" shape="479.37,-77.56 475.33,-81.43 472.82,-84.38 470.89,-87.73 468.57,-92.83"/>
        <lane id=":J0_2_1" index="1" speed="13.89" length="18.29" shape="481.55,-79.90 477.79,-83.51 475.45,-86.25 473.66,-89.37 471.50,-94.12"/>
    </edge>
    <edge id=":J0_4" function="internal">
        <lane id=":J0_4_0" index="0" speed="6.55" length="7.90" shape="466.58,-85.93 468.16,-87.35 469.02,-88.97 469.16,-90.80 468.57,-92.83"/>
        <lane id=":J0_4_1" index="1" speed="8.05" length="12.42" shape="468.38,-83.28 470.85,-85.50 472.20,-88.05 472.42,-90.92 471.50,-94.12"/>
    </edge>
    <edge id=":J1_0" function="internal">
        <lane id=":J1_0_0" index="0" speed="8.00" length="9.66" shape="515.09,-60.73 513.60,-63.14 511.87,-64.84 509.92,-65.82 507.72,-66.09"/>
        <lane id=":J1_0_1" index="1" speed="9.32" length="13.36" shape="517.96,-62.14 515.93,-65.37 513.53,-67.64 510.75,-68.94 507.59,-69.28"/>
    </edge>
    <edge id=":J1_2" function="internal">
        <lane id=":J1_2_0" index="0" speed="6.53" length="8.33" shape="525.69,-72.18 523.98,-70.72 523.08,-69.03 522.98,-67.12 523.69,-64.98"/>
        <lane id=":J1_2_1" index="1" speed="7.36" length="10.85" shape="525.69,-72.18 522.79,-69.98 521.01,-67.81 520.35,-65.67 520.82,-63.56"/>
    </edge>
    <edge id=":J1_4" function="internal">
        <lane id=":J1_4_0" index="0" speed="13.89" length="18.52" shape="525.69,-72.18 520.85,-69.13 517.27,-67.36 513.41,-66.48 507.72,-66.09"/>
        <lane id=":J1_4_1" index="1" speed="13.89" length="18.52" shape="523.96,-74.88 519.55,-72.08 516.29,-70.46 512.77,-69.65 507.59,-69.28"/>
    </edge>
    <edge id=":J10_0" function="internal">
        <lane id=":J10_0_0" index="0" speed="6.08" length="7.82" shape="364.19,-671.15 364.07,-673.29 364.67,-674.95 365.98,-676.12 368.02,-676.81"/>
    </edge>
    <edge id=":J10_1" function="internal">
        <lane id=":J10_1_0" index="0" speed="3.90" length="2.61" shape="368.60,-673.66 367.92,-673.43 367.48,-673.04 367.28,-672.49 367.32,-671.77"/>
    </edge>
    <edge id=":J11_0" function="internal">
        <lane id=":J11_0_0" index="0" speed="3.90" length="2.69" shape="877.41,-766.53 877.21,-767.25 876.83,-767.71 876.27,-767.93 875.53,-767.90"/>
    </edge>
    <edge id=":J11_1" function="internal">
        <lane id=":J11_1_0" index="0" speed="6.07" length="8.08" shape="874.94,-771.05 877.17,-771.14 878.85,-770.49 879.99,-769.08 880.58,-766.93"/>
    </edge>
    <edge id=":J12_0" function="internal">
        <lane id=":J12_0_0" index="0" speed="13.89" length="12.90" shape="1374.09,-357.89 1370.52,-360.23 1368.45,-362.35 1366.90,-364.98 1364.86,-368.82"/>
        <lane id=":J12_0_1" index="1" speed="13.89" length="12.90" shape="1375.69,-360.67 1372.56,-362.74 1370.77,-364.64 1369.43,-366.98 1367.65,-370.38"/>
        <lane id=":J12_0_2" index="2" speed="13.89" length="12.90" shape="1377.28,-363.45 1374.59,-365.25 1373.08,-366.93 1371.97,-368.99 1370.44,-371.94"/>
    </edge>
    <edge id=":J12_3" function="internal">
        <lane id=":J12_3_0" index="0" speed="7.15" length="9.01" shape="1362.55,-360.83 1364.36,-362.90 1365.34,-364.92 1365.51,-366.90 1364.86,-368.82"/>
        <lane id=":J12_3_1" index="1" speed="8.56" length="13.27" shape="1364.76,-358.51 1367.27,-361.46 1368.59,-364.43 1368.72,-367.40 1367.65,-370.38"/>
    </edge>
    <edge id=":J13_0" function="internal">
        <lane id=":J13_0_0" index="0" speed="6.51" length="8.99" shape="1415.82,-346.08 1414.94,-348.38 1413.53,-349.85 1411.60,-350.49 1409.15,-350.30"/>
        <lane id=":J13_0_1" index="1" speed="8.00" length="14.12" shape="1418.94,-346.80 1417.55,-350.40 1415.34,-352.71 1412.31,-353.72 1408.46,-353.42"/>
    </edge>
    <edge id=":J13_2" function="internal">
        <lane id=":J13_2_0" index="0" speed="10.10" length="11.10" shape="1426.50,-358.90 1425.33,-356.83 1424.71,-354.36 1424.67,-351.49 1425.18,-348.22"/>
        <lane id=":J13_2_1" index="1" speed="10.72" length="12.57" shape="1426.50,-358.90 1424.18,-355.57 1422.67,-352.56 1421.96,-349.87 1422.06,-347.51"/>
    </edge>
    <edge id=":J13_4" function="internal">
        <lane id=":J13_4_0" index="0" speed="13.89" length="17.85" shape="1426.50,-358.90 1422.61,-354.63 1419.14,-352.52 1415.01,-351.45 1409.15,-350.30"/>
        <lane id=":J13_4_1" index="1" speed="13.89" length="17.85" shape="1423.98,-360.87 1420.50,-357.10 1417.38,-355.30 1413.68,-354.42 1408.46,-353.42"/>
        <lane id=":J13_4_2" index="2" speed="13.89" length="17.85" shape="1421.45,-362.83 1418.39,-359.57 1415.63,-358.07 1412.35,-357.38 1407.76,-356.55"/>
    </edge>
    <edge id=":J14_0" function="internal">
        <lane id=":J14_0_0" index="0" speed="9.44" length="10.23" shape="1361.51,-419.55 1364.38,-418.64 1366.99,-418.32 1369.32,-418.60 1371.39,-419.47"/>
        <lane id=":J14_0_1" index="1" speed="10.66" length="13.19" shape="1360.32,-416.58 1363.92,-415.46 1367.25,-415.11 1370.29,-415.53 1373.04,-416.73"/>
    </edge>
    <edge id=":J14_2" function="internal">
        <lane id=":J14_2_0" index="0" speed="6.52" length="8.56" shape="1361.18,-403.74 1361.57,-406.03 1361.16,-407.95 1359.95,-409.48 1357.93,-410.64"/>
        <lane id=":J14_2_1" index="1" speed="7.35" length="11.14" shape="1361.18,-403.74 1362.01,-407.36 1361.94,-410.22 1360.98,-412.30 1359.13,-413.61"/>
    </edge>
    <edge id=":J14_4" function="internal">
        <lane id=":J14_4_0" index="0" speed="13.89" length="17.17" shape="1361.18,-403.74 1362.85,-409.28 1364.34,-413.14 1366.81,-416.22 1371.39,-419.47"/>
        <lane id=":J14_4_1" index="1" speed="13.89" length="17.17" shape="1364.22,-402.77 1365.67,-407.66 1366.93,-411.09 1369.04,-413.85 1373.04,-416.73"/>
        <lane id=":J14_4_2" index="2" speed="13.54" length="17.17" shape="1367.27,-401.79 1368.49,-406.05 1369.51,-409.05 1371.26,-411.48 1374.70,-413.99"/>
    </edge>
    <edge id=":J15_0" function="internal">
        <lane id=":J15_0_0" index="0" speed="6.59" length="7.29" shape="1433.74,-421.41 1432.60,-419.85 1432.09,-418.22 1432.20,-416.51 1432.95,-414.73"/>
        <lane id=":J15_0_1" index="1" speed="8.10" length="11.46" shape="1431.43,-423.63 1429.64,-421.18 1428.83,-418.61 1429.01,-415.92 1430.18,-413.12"/>
    </edge>
    <edge id=":J15_2" function="internal">
        <lane id=":J15_2_0" index="0" speed="7.61" length="7.82" shape="1419.76,-425.69 1421.63,-425.46 1423.43,-425.78 1425.16,-426.64 1426.81,-428.06"/>
        <lane id=":J15_2_1" index="1" speed="8.41" length="9.69" shape="1419.76,-425.69 1423.10,-424.97 1425.78,-424.76 1427.78,-425.05 1429.12,-425.84"/>
    </edge>
    <edge id=":J15_4" function="internal">
        <lane id=":J15_4_0" index="0" speed="13.74" length="15.08" shape="1419.76,-425.69 1423.60,-424.21 1427.08,-421.89 1430.20,-418.73 1432.95,-414.73"/>
        <lane id=":J15_4_1" index="1" speed="12.75" length="15.08" shape="1418.94,-422.60 1422.18,-421.34 1425.14,-419.34 1427.80,-416.60 1430.18,-413.12"/>
        <lane id=":J15_4_2" index="2" speed="11.67" length="15.08" shape="1418.12,-419.51 1420.76,-418.46 1423.19,-416.78 1425.41,-414.47 1427.41,-411.51"/>
    </edge>
    <edge id=":J16_0" function="internal">
        <lane id=":J16_0_0" index="0" speed="6.52" length="9.04" shape="396.58,-673.15 395.78,-675.50 394.43,-677.03 392.51,-677.75 390.04,-677.64"/>
    </edge>
    <edge id=":J16_1" function="internal">
        <lane id=":J16_1_0" index="0" speed="8.00" length="14.20" shape="396.58,-673.15 396.41,-677.04 397.52,-680.05 399.93,-682.17 403.61,-683.42"/>
    </edge>
    <edge id=":J16_2" function="internal">
        <lane id=":J16_2_0" index="0" speed="6.50" length="9.03" shape="404.20,-680.27 401.85,-679.48 400.33,-678.13 399.62,-676.22 399.72,-673.74"/>
    </edge>
    <edge id=":J16_3" function="internal">
        <lane id=":J16_3_0" index="0" speed="13.89" length="14.40" shape="404.20,-680.27 390.04,-677.64"/>
    </edge>
    <edge id=":J16_4" function="internal">
        <lane id=":J16_4_0" index="0" speed="13.89" length="14.40" shape="389.46,-680.79 403.61,-683.42"/>
    </edge>
    <edge id=":J16_5" function="internal">
        <lane id=":J16_5_0" index="0" speed="8.01" length="4.06" shape="389.46,-680.79 393.34,-680.95 393.50,-680.89"/>
    </edge>
    <edge id=":J16_6" function="internal">
        <lane id=":J16_6_0" index="0" speed="8.01" length="10.13" shape="393.50,-680.89 396.34,-679.83 398.47,-677.43 399.72,-673.74"/>
    </edge>
    <edge id=":J17_0" function="internal">
        <lane id=":J17_0_0" index="0" speed="13.89" length="14.39" shape="383.64,-573.64 380.84,-587.75"/>
    </edge>
    <edge id=":J17_1" function="internal">
        <lane id=":J17_1_0" index="0" speed="7.97" length="4.07" shape="383.64,-573.64 383.44,-577.55 383.49,-577.70"/>
    </edge>
    <edge id=":J17_6" function="internal">
        <lane id=":J17_6_0" index="0" speed="7.97" length="10.19" shape="383.49,-577.70 384.54,-580.57 386.95,-582.69 390.67,-583.92"/>
    </edge>
    <edge id=":J17_2" function="internal">
        <lane id=":J17_2_0" index="0" speed="6.47" length="9.03" shape="391.24,-580.77 388.88,-579.99 387.35,-578.65 386.65,-576.74 386.78,-574.26"/>
    </edge>
    <edge id=":J17_3" function="internal">
        <lane id=":J17_3_0" index="0" speed="8.07" length="14.21" shape="391.24,-580.77 387.33,-580.63 384.29,-581.74 382.13,-584.12 380.84,-587.75"/>
    </edge>
    <edge id=":J17_4" function="internal">
        <lane id=":J17_4_0" index="0" speed="6.59" length="9.13" shape="383.98,-588.38 384.81,-586.05 386.20,-584.54 388.15,-583.82 390.67,-583.92"/>
    </edge>
    <edge id=":J17_5" function="internal">
        <lane id=":J17_5_0" index="0" speed="13.89" length="14.40" shape="383.98,-588.38 386.78,-574.26"/>
    </edge>
    <edge id=":J18_0" function="internal">
        <lane id=":J18_0_0" index="0" speed="13.89" length="0.10" shape="888.29,-680.09 888.29,-680.09"/>
    </edge>
    <edge id=":J18_1" function="internal">
        <lane id=":J18_1_0" index="0" speed="13.89" length="0.10" shape="891.47,-680.49 891.47,-680.49"/>
    </edge>
    <edge id=":J19_0" function="internal">
        <lane id=":J19_0_0" index="0" speed="13.89" length="14.37" shape="421.82,-586.19 407.66,-583.70"/>
    </edge>
    <edge id=":J19_1" function="internal">
        <lane id=":J19_1_0" index="0" speed="8.05" length="4.02" shape="421.82,-586.19 417.95,-586.08 417.81,-586.14"/>
    </edge>
    <edge id=":J19_6" function="internal">
        <lane id=":J19_6_0" index="0" speed="8.05" length="10.18" shape="417.81,-586.14 414.96,-587.24 412.84,-589.67 411.59,-593.36"/>
    </edge>
    <edge id=":J19_2" function="internal">
        <lane id=":J19_2_0" index="0" speed="6.56" length="9.09" shape="414.74,-593.95 415.54,-591.58 416.89,-590.02 418.81,-589.27 421.28,-589.34"/>
    </edge>
    <edge id=":J19_3" function="internal">
        <lane id=":J19_3_0" index="0" speed="7.99" length="14.23" shape="414.74,-593.95 414.91,-590.05 413.79,-587.04 411.37,-584.93 407.66,-583.70"/>
    </edge>
    <edge id=":J19_4" function="internal">
        <lane id=":J19_4_0" index="0" speed="6.49" length="9.03" shape="407.10,-586.85 409.45,-587.63 410.99,-588.97 411.70,-590.88 411.59,-593.36"/>
    </edge>
    <edge id=":J19_5" function="internal">
        <lane id=":J19_5_0" index="0" speed="13.89" length="14.39" shape="407.10,-586.85 421.28,-589.34"/>
    </edge>
    <edge id=":J2_0" function="internal">
        <lane id=":J2_0_0" index="0" speed="6.62" length="7.49" shape="547.13,-96.87 545.15,-96.62 543.57,-95.85 542.39,-94.55 541.61,-92.73"/>
        <lane id=":J2_0_1" index="1" speed="8.12" length="11.72" shape="547.15,-100.07 544.05,-99.68 541.58,-98.47 539.74,-96.43 538.53,-93.58"/>
    </edge>
    <edge id=":J2_2" function="internal">
        <lane id=":J2_2_0" index="0" speed="6.58" length="7.46" shape="541.80,-110.70 542.53,-108.86 543.68,-107.54 545.23,-106.74 547.19,-106.47"/>
        <lane id=":J2_2_1" index="1" speed="7.43" length="9.76" shape="541.80,-110.70 542.84,-107.46 544.08,-105.14 545.52,-103.74 547.17,-103.27"/>
    </edge>
    <edge id=":J2_4" function="internal">
        <lane id=":J2_4_0" index="0" speed="13.89" length="17.50" shape="541.80,-110.70 543.03,-105.43 543.42,-101.69 542.96,-97.96 541.61,-92.73"/>
        <lane id=":J2_4_1" index="1" speed="13.89" length="17.50" shape="538.70,-109.92 539.82,-105.13 540.17,-101.73 539.75,-98.34 538.53,-93.58"/>
    </edge>
    <edge id=":J20_0" function="internal">
        <lane id=":J20_0_0" index="0" speed="13.89" length="14.37" shape="455.02,-591.86 440.85,-589.47"/>
    </edge>
    <edge id=":J20_1" function="internal">
        <lane id=":J20_1_0" index="0" speed="8.10" length="3.99" shape="455.02,-591.86 451.18,-591.78 451.04,-591.84"/>
    </edge>
    <edge id=":J20_6" function="internal">
        <lane id=":J20_6_0" index="0" speed="8.10" length="10.22" shape="451.04,-591.84 448.19,-592.97 446.06,-595.41 444.78,-599.11"/>
    </edge>
    <edge id=":J20_2" function="internal">
        <lane id=":J20_2_0" index="0" speed="6.62" length="9.17" shape="447.92,-599.73 448.74,-597.33 450.12,-595.74 452.03,-594.97 454.50,-595.02"/>
    </edge>
    <edge id=":J20_3" function="internal">
        <lane id=":J20_3_0" index="0" speed="7.96" length="14.28" shape="447.92,-599.73 448.12,-595.81 447.01,-592.79 444.59,-590.68 440.85,-589.47"/>
    </edge>
    <edge id=":J20_4" function="internal">
        <lane id=":J20_4_0" index="0" speed="6.46" length="9.03" shape="440.31,-592.62 442.67,-593.39 444.20,-594.72 444.91,-596.63 444.78,-599.11"/>
    </edge>
    <edge id=":J20_5" function="internal">
        <lane id=":J20_5_0" index="0" speed="13.89" length="14.39" shape="440.31,-592.62 454.50,-595.02"/>
    </edge>
    <edge id=":J21_0" function="internal">
        <lane id=":J21_0_0" index="0" speed="6.56" length="9.13" shape="429.08,-679.10 428.26,-681.49 426.89,-683.04 424.97,-683.77 422.49,-683.68"/>
    </edge>
    <edge id=":J21_1" function="internal">
        <lane id=":J21_1_0" index="0" speed="7.95" length="14.29" shape="429.08,-679.10 428.88,-683.03 429.99,-686.05 432.42,-688.15 436.17,-689.35"/>
    </edge>
    <edge id=":J21_2" function="internal">
        <lane id=":J21_2_0" index="0" speed="6.45" length="9.03" shape="436.70,-686.20 434.33,-685.44 432.80,-684.11 432.10,-682.20 432.22,-679.72"/>
    </edge>
    <edge id=":J21_3" function="internal">
        <lane id=":J21_3_0" index="0" speed="13.89" length="14.43" shape="436.70,-686.20 422.49,-683.68"/>
    </edge>
    <edge id=":J21_4" function="internal">
        <lane id=":J21_4_0" index="0" speed="13.89" length="14.48" shape="421.91,-686.82 436.17,-689.35"/>
    </edge>
    <edge id=":J21_5" function="internal">
        <lane id=":J21_5_0" index="0" speed="8.05" length="4.10" shape="421.91,-686.82 425.78,-686.98 426.00,-686.90"/>
    </edge>
    <edge id=":J21_6" function="internal">
        <lane id=":J21_6_0" index="0" speed="8.05" length="10.14" shape="426.00,-686.90 428.79,-685.85 430.94,-683.43 432.22,-679.72"/>
    </edge>
    <edge id=":J22_0" function="internal">
        <lane id=":J22_0_0" index="0" speed="6.52" length="9.00" shape="463.17,-685.02 462.39,-687.36 461.05,-688.90 459.16,-689.64 456.70,-689.57"/>
    </edge>
    <edge id=":J22_1" function="internal">
        <lane id=":J22_1_0" index="0" speed="8.00" length="14.13" shape="463.17,-685.02 463.02,-688.88 464.15,-691.87 466.54,-693.99 470.21,-695.23"/>
    </edge>
    <edge id=":J22_2" function="internal">
        <lane id=":J22_2_0" index="0" speed="6.51" length="8.99" shape="470.80,-692.08 468.46,-691.29 466.94,-689.95 466.22,-688.04 466.32,-685.59"/>
    </edge>
    <edge id=":J22_3" function="internal">
        <lane id=":J22_3_0" index="0" speed="13.89" length="14.32" shape="470.80,-692.08 456.70,-689.57"/>
    </edge>
    <edge id=":J22_4" function="internal">
        <lane id=":J22_4_0" index="0" speed="13.89" length="14.26" shape="456.17,-692.73 470.21,-695.23"/>
    </edge>
    <edge id=":J22_5" function="internal">
        <lane id=":J22_5_0" index="0" speed="8.02" length="3.98" shape="456.17,-692.73 460.02,-692.83 460.14,-692.78"/>
    </edge>
    <edge id=":J22_6" function="internal">
        <lane id=":J22_6_0" index="0" speed="8.02" length="10.14" shape="460.14,-692.78 463.00,-691.67 465.10,-689.26 466.32,-685.59"/>
    </edge>
    <edge id=":J24_0" function="internal">
        <lane id=":J24_0_0" index="0" speed="8.19" length="7.46" shape="1731.54,-782.53 1730.41,-784.64 1729.21,-786.23 1727.96,-787.30 1726.64,-787.86"/>
    </edge>
    <edge id=":J24_1" function="internal">
        <lane id=":J24_1_0" index="0" speed="13.89" length="7.98" shape="1734.43,-786.13 1726.64,-787.86"/>
        <lane id=":J24_1_1" index="1" speed="13.89" length="7.98" shape="1735.12,-789.25 1727.33,-790.98"/>
    </edge>
    <edge id=":J25_0" function="internal">
        <lane id=":J25_0_0" index="0" speed="6.08" length="7.66" shape="487.37,-566.26 487.41,-564.17 486.78,-562.55 485.47,-561.41 483.48,-560.76"/>
    </edge>
    <edge id=":J25_1" function="internal">
        <lane id=":J25_1_0" index="0" speed="3.91" length="2.55" shape="482.91,-563.90 483.58,-564.12 484.01,-564.50 484.22,-565.04 484.21,-565.74"/>
    </edge>
    <edge id=":J26_0" function="internal">
        <lane id=":J26_0_0" index="0" speed="6.52" length="9.07" shape="480.15,-590.33 479.41,-592.69 478.08,-594.25 476.16,-595.00 473.67,-594.94"/>
    </edge>
    <edge id=":J26_1" function="internal">
        <lane id=":J26_1_0" index="0" speed="13.89" length="14.42" shape="480.15,-590.33 477.70,-604.55"/>
    </edge>
    <edge id=":J26_2" function="internal">
        <lane id=":J26_2_0" index="0" speed="13.89" length="14.47" shape="480.85,-605.12 483.31,-590.86"/>
    </edge>
    <edge id=":J26_3" function="internal">
        <lane id=":J26_3_0" index="0" speed="7.97" length="4.14" shape="480.85,-605.12 480.99,-601.21 480.91,-601.00"/>
    </edge>
    <edge id=":J26_6" function="internal">
        <lane id=":J26_6_0" index="0" speed="7.97" length="10.11" shape="480.91,-601.00 479.84,-598.21 477.40,-596.12 473.67,-594.94"/>
    </edge>
    <edge id=":J26_4" function="internal">
        <lane id=":J26_4_0" index="0" speed="6.47" length="9.03" shape="473.15,-598.10 475.51,-598.84 477.06,-600.17 477.79,-602.07 477.70,-604.55"/>
    </edge>
    <edge id=":J26_5" function="internal">
        <lane id=":J26_5_0" index="0" speed="8.01" length="14.23" shape="473.15,-598.10 477.06,-598.19 480.05,-597.01 482.14,-594.56 483.31,-590.86"/>
    </edge>
    <edge id=":J27_0" function="internal">
        <lane id=":J27_0_0" index="0" speed="13.89" length="14.43" shape="390.65,-538.20 387.83,-552.35"/>
    </edge>
    <edge id=":J27_1" function="internal">
        <lane id=":J27_1_0" index="0" speed="7.97" length="4.10" shape="390.65,-538.20 390.43,-542.12 390.49,-542.29"/>
    </edge>
    <edge id=":J27_6" function="internal">
        <lane id=":J27_6_0" index="0" speed="7.97" length="10.17" shape="390.49,-542.29 391.52,-545.14 393.93,-547.27 397.65,-548.51"/>
    </edge>
    <edge id=":J27_2" function="internal">
        <lane id=":J27_2_0" index="0" speed="6.46" length="9.03" shape="398.22,-545.36 395.86,-544.57 394.34,-543.23 393.65,-541.31 393.79,-538.83"/>
    </edge>
    <edge id=":J27_3" function="internal">
        <lane id=":J27_3_0" index="0" speed="8.06" length="14.23" shape="398.22,-545.36 394.30,-545.20 391.27,-546.32 389.11,-548.70 387.83,-552.35"/>
    </edge>
    <edge id=":J27_4" function="internal">
        <lane id=":J27_4_0" index="0" speed="6.57" length="9.13" shape="390.97,-552.96 391.79,-550.63 393.18,-549.11 395.13,-548.41 397.65,-548.51"/>
    </edge>
    <edge id=":J27_5" function="internal">
        <lane id=":J27_5_0" index="0" speed="13.89" length="14.41" shape="390.97,-552.96 393.79,-538.83"/>
    </edge>
    <edge id=":J28_0" function="internal">
        <lane id=":J28_0_0" index="0" speed="7.30" length="4.13" shape="1736.64,-751.57 1737.46,-752.46 1737.91,-753.19 1738.11,-754.02 1738.19,-755.23"/>
    </edge>
    <edge id=":J28_1" function="internal">
        <lane id=":J28_1_0" index="0" speed="13.89" length="4.24" shape="1738.95,-749.35 1741.90,-752.40"/>
    </edge>
    <edge id=":J29_0" function="internal">
        <lane id=":J29_0_0" index="0" speed="13.89" length="1.03" shape="97.34,4.13 97.23,4.02 97.15,3.95 97.06,3.90 96.92,3.83"/>
        <lane id=":J29_0_1" index="1" speed="12.11" length="1.03" shape="99.60,1.87 99.28,1.54 99.03,1.34 98.76,1.18 98.36,0.97"/>
    </edge>
    <edge id=":J29_2" function="internal">
        <lane id=":J29_2_0" index="0" speed="13.89" length="3.10" shape="101.22,-4.76 102.17,-4.27 102.80,-3.88 103.36,-3.41 104.13,-2.66"/>
        <lane id=":J29_2_1" index="1" speed="13.89" length="3.10" shape="99.79,-1.90 100.47,-1.55 100.92,-1.27 101.32,-0.93 101.87,-0.40"/>
    </edge>
    <edge id=":J3_0" function="internal">
        <lane id=":J3_0_0" index="0" speed="6.57" length="7.48" shape="526.25,-145.68 525.59,-143.80 525.58,-142.05 526.23,-140.42 527.53,-138.92"/>
        <lane id=":J3_0_1" index="1" speed="8.09" length="11.76" shape="523.40,-147.14 522.36,-144.19 522.35,-141.44 523.36,-138.88 525.41,-136.52"/>
    </edge>
    <edge id=":J3_2" function="internal">
        <lane id=":J3_2_0" index="0" speed="7.29" length="8.06" shape="511.31,-146.00 513.27,-146.14 514.99,-146.86 516.47,-148.17 517.71,-150.06"/>
        <lane id=":J3_2_1" index="1" speed="8.08" length="10.08" shape="511.31,-146.00 514.75,-145.95 517.43,-146.37 519.37,-147.25 520.56,-148.60"/>
    </edge>
    <edge id=":J3_4" function="internal">
        <lane id=":J3_4_0" index="0" speed="13.89" length="17.20" shape="511.31,-146.00 516.64,-145.44 520.24,-144.41 523.44,-142.40 527.53,-138.92"/>
        <lane id=":J3_4_1" index="1" speed="13.89" length="17.20" shape="511.07,-142.81 515.78,-142.31 518.97,-141.39 521.79,-139.61 525.41,-136.52"/>
    </edge>
    <edge id=":J30_0" function="internal">
        <lane id=":J30_0_0" index="0" speed="13.89" length="25.10" shape="211.22,110.98 205.14,107.88 199.93,104.88 195.08,101.40 190.04,96.83"/>
        <lane id=":J30_0_1" index="1" speed="13.89" length="25.10" shape="212.66,108.12 206.70,105.11 201.78,102.32 197.21,99.04 192.31,94.57"/>
    </edge>
    <edge id=":J30_2" function="internal">
        <lane id=":J30_2_0" index="0" speed="8.81" length="5.34" shape="212.66,108.12 208.24,105.11"/>
    </edge>
    <edge id=":J30_8" function="internal">
        <lane id=":J30_8_0" index="0" speed="8.81" length="18.88" shape="208.24,105.11 206.65,104.04 204.45,99.71 206.07,95.13 211.49,90.30"/>
    </edge>
    <edge id=":J30_3" function="internal">
        <lane id=":J30_3_0" index="0" speed="5.68" length="9.23" shape="215.07,95.61 213.01,97.45 212.39,99.19 213.23,100.84 215.52,102.39"/>
    </edge>
    <edge id=":J30_4" function="internal">
        <lane id=":J30_4_0" index="0" speed="10.82" length="22.92" shape="213.28,92.96 206.92,96.47 201.30,97.91 196.43,97.28 192.31,94.57"/>
    </edge>
    <edge id=":J30_5" function="internal">
        <lane id=":J30_5_0" index="0" speed="8.58" length="14.07" shape="196.83,90.04 199.05,91.31 201.93,91.33 205.48,90.11 209.70,87.65"/>
    </edge>
    <edge id=":J30_6" function="internal">
        <lane id=":J30_6_0" index="0" speed="13.89" length="23.06" shape="196.83,90.04 201.48,94.33 205.47,97.19 209.82,99.57 215.52,102.39"/>
        <lane id=":J30_6_1" index="1" speed="13.89" length="23.06" shape="194.57,92.31 199.34,96.68 203.63,99.76 208.26,102.34 214.09,105.25"/>
    </edge>
    <edge id=":J31_0" function="internal">
        <lane id=":J31_0_0" index="0" speed="13.89" length="2.10" shape="599.52,304.83 598.81,304.65 598.34,304.50 597.88,304.30 597.23,303.98"/>
        <lane id=":J31_0_1" index="1" speed="13.89" length="2.10" shape="600.29,301.72 599.79,301.59 599.45,301.49 599.12,301.35 598.66,301.12"/>
    </edge>
    <edge id=":J31_2" function="internal">
        <lane id=":J31_2_0" index="0" speed="13.89" length="0.70" shape="601.52,295.39 601.61,295.44 601.68,295.47 601.75,295.49 601.85,295.51"/>
        <lane id=":J31_2_1" index="1" speed="13.89" length="0.70" shape="600.09,298.25 600.37,298.39 600.56,298.48 600.77,298.54 601.07,298.62"/>
    </edge>
    <edge id=":J32_0" function="internal">
        <lane id=":J32_0_0" index="0" speed="13.89" length="3.73" shape="1001.92,404.57 1000.64,404.74 999.75,404.77 998.87,404.65 997.62,404.35"/>
        <lane id=":J32_0_1" index="1" speed="11.88" length="3.73" shape="1001.47,401.41 1000.55,401.53 999.92,401.55 999.29,401.46 998.40,401.25"/>
    </edge>
    <edge id=":J32_2" function="internal">
        <lane id=":J32_2_0" index="0" speed="13.89" length="1.24" shape="999.95,395.04 1000.13,395.08 1000.25,395.10 1000.38,395.09 1000.56,395.07"/>
        <lane id=":J32_2_1" index="1" speed="9.30" length="1.24" shape="999.17,398.14 999.71,398.27 1000.09,398.32 1000.47,398.31 1001.01,398.24"/>
    </edge>
    <edge id=":J33_0" function="internal">
        <lane id=":J33_0_0" index="0" speed="9.93" length="8.96" shape="1705.43,300.76 1703.79,302.80 1702.37,304.00 1700.64,304.67 1698.05,305.13"/>
        <lane id=":J33_0_1" index="1" speed="8.46" length="6.40" shape="1702.87,298.84 1701.70,300.30 1700.68,301.16 1699.45,301.63 1697.60,301.96"/>
    </edge>
    <edge id=":J33_2" function="internal">
        <lane id=":J33_2_0" index="0" speed="4.20" length="1.26" shape="1696.70,295.62 1697.01,295.55 1697.29,295.42 1697.54,295.24 1697.75,295.00"/>
        <lane id=":J33_2_1" index="1" speed="6.63" length="3.77" shape="1697.15,298.79 1698.09,298.57 1698.92,298.18 1699.67,297.63 1700.31,296.92"/>
    </edge>
    <edge id=":J34_0" function="internal">
        <lane id=":J34_0_0" index="0" speed="7.43" length="19.87" shape="1983.26,-98.28 1988.64,-97.93 1992.17,-95.06 1993.23,-90.65 1991.23,-85.64"/>
    </edge>
    <edge id=":J34_1" function="internal">
        <lane id=":J34_1_0" index="0" speed="4.17" length="5.08" shape="1986.11,-89.48 1986.95,-90.89 1986.97,-91.79 1986.16,-92.16 1984.52,-92.01"/>
    </edge>
    <edge id=":J4_0" function="internal">
        <lane id=":J4_0_0" index="0" speed="6.54" length="8.06" shape="470.04,-137.57 471.77,-136.27 473.56,-135.74 475.41,-136.00 477.31,-137.03"/>
        <lane id=":J4_0_1" index="1" speed="8.04" length="12.67" shape="467.79,-135.30 470.51,-133.26 473.32,-132.43 476.22,-132.83 479.21,-134.46"/>
    </edge>
    <edge id=":J4_2" function="internal">
        <lane id=":J4_2_0" index="0" speed="8.50" length="9.60" shape="466.56,-122.21 466.76,-124.32 466.28,-126.45 465.12,-128.60 463.27,-130.77"/>
        <lane id=":J4_2_1" index="1" speed="9.19" length="11.33" shape="466.56,-122.21 467.25,-125.81 467.31,-128.82 466.74,-131.22 465.53,-133.04"/>
    </edge>
    <edge id=":J4_4" function="internal">
        <lane id=":J4_4_0" index="0" speed="13.89" length="17.84" shape="466.56,-122.21 468.17,-127.50 470.03,-130.91 472.85,-133.67 477.31,-137.03"/>
        <lane id=":J4_4_1" index="1" speed="13.89" length="17.84" shape="469.66,-121.41 471.09,-126.08 472.75,-129.07 475.26,-131.50 479.21,-134.46"/>
    </edge>
    <edge id=":J40_0" function="internal">
        <lane id=":J40_0_0" index="0" speed="9.83" length="8.84" shape="601.01,105.40 598.95,104.49 597.17,103.24 595.70,101.66 594.52,99.74"/>
        <lane id=":J40_0_1" index="1" speed="8.38" length="6.32" shape="602.02,102.36 600.55,101.71 599.28,100.82 598.23,99.69 597.38,98.32"/>
    </edge>
    <edge id=":J40_2" function="internal">
        <lane id=":J40_2_0" index="0" speed="4.19" length="1.26" shape="603.12,95.48 603.29,95.76 603.50,95.98 603.75,96.16 604.05,96.29"/>
        <lane id=":J40_2_1" index="1" speed="6.63" length="3.79" shape="600.25,96.90 600.76,97.72 601.39,98.40 602.15,98.94 603.04,99.33"/>
    </edge>
    <edge id=":J41_0" function="internal">