<?xml version="1.0" encoding="UTF-8"?>

<!-- generated on 2022-12-02 09:50:30 by Eclipse SUMO netedit Version 1.14.1
-->

<routes xmlns:xsi="http://www.w3.org/2001/XMLSchema-instance" xsi:noNamespaceSchemaLocation="http://sumo.dlr.de/xsd/routes_file.xsd">
    <!-- Routes -->
    <route id="r_0" edges="E40 E31 E32 E33 E34 E35"/>
    <route id="r_1" edges="E40 E31 E41 E51 E52 E53 E58 E47 E48"/>
</routes>
