<?xml version="1.0" encoding="UTF-8"?>

<!-- generated on 2022-12-03 23:47:48 by Eclipse SUMO netedit Version 1.15.0
<configuration xmlns:xsi="http://www.w3.org/2001/XMLSchema-instance" xsi:noNamespaceSchemaLocation="http://sumo.dlr.de/xsd/netconvertConfiguration.xsd">

    <input>
        <sumo-net-file value="C:\Users\Ivo Saavedra\Projects\TraSMAPy\simulation\simple_uvar\simple_uvar.net.xml"/>
    </input>

    <output>
        <output-file value="C:\Users\Ivo Saavedra\Projects\TraSMAPy\simulation\simple_uvar\simple_uvar.net.xml"/>
    </output>

    <processing>
        <geometry.min-radius.fix.railways value="false"/>
        <geometry.max-grade.fix value="false"/>
        <offset.disable-normalization value="true"/>
        <lefthand value="0"/>
    </processing>

    <junctions>
        <no-turnarounds value="true"/>
        <junctions.corner-detail value="5"/>
        <junctions.limit-turn-speed value="5.50"/>
        <rectangular-lane-cut value="0"/>
    </junctions>

    <pedestrian>
        <walkingareas value="0"/>
    </pedestrian>

</configuration>
-->

<net version="1.9" junctionCornerDetail="5" limitTurnSpeed="5.50" xmlns:xsi="http://www.w3.org/2001/XMLSchema-instance" xsi:noNamespaceSchemaLocation="http://sumo.dlr.de/xsd/net_file.xsd">

    <location netOffset="0.00,0.00" convBoundary="-300.00,-800.00,2000.00,400.00" origBoundary="-10000000000.00,-10000000000.00,10000000000.00,10000000000.00" projParameter="!"/>

    <edge id=":J29_0" function="internal">
        <lane id=":J29_0_0" index="0" speed="13.89" length="1.03" shape="97.34,4.13 97.23,4.02 97.15,3.95 97.06,3.90 96.92,3.83"/>
        <lane id=":J29_0_1" index="1" speed="12.11" length="1.03" shape="99.60,1.87 99.28,1.54 99.03,1.34 98.76,1.18 98.36,0.97"/>
    </edge>
    <edge id=":J29_2" function="internal">
        <lane id=":J29_2_0" index="0" speed="13.89" length="3.10" shape="101.22,-4.76 102.17,-4.27 102.80,-3.88 103.36,-3.41 104.13,-2.66"/>
        <lane id=":J29_2_1" index="1" speed="13.89" length="3.10" shape="99.79,-1.90 100.47,-1.55 100.92,-1.27 101.32,-0.93 101.87,-0.40"/>
    </edge>
    <edge id=":J30_0" function="internal">
        <lane id=":J30_0_0" index="0" speed="13.89" length="25.14" shape="211.30,111.01 205.20,107.91 199.98,104.91 195.11,101.42 190.07,96.86"/>
        <lane id=":J30_0_1" index="1" speed="13.89" length="25.14" shape="212.73,108.15 206.76,105.14 201.83,102.35 197.24,99.07 192.33,94.59"/>
    </edge>
    <edge id=":J30_2" function="internal">
        <lane id=":J30_2_0" index="0" speed="8.81" length="5.35" shape="212.73,108.15 208.30,105.15"/>
    </edge>
    <edge id=":J30_8" function="internal">
        <lane id=":J30_8_0" index="0" speed="8.81" length="18.96" shape="208.30,105.15 206.69,104.06 204.49,99.72 206.14,95.15 211.62,90.33"/>
    </edge>
    <edge id=":J30_3" function="internal">
        <lane id=":J30_3_0" index="0" speed="5.67" length="9.24" shape="215.17,95.66 213.08,97.49 212.46,99.22 213.30,100.87 215.59,102.43"/>
    </edge>
    <edge id=":J30_4" function="internal">
        <lane id=":J30_4_0" index="0" speed="10.87" length="22.98" shape="213.39,93.00 206.98,96.49 201.33,97.93 196.45,97.29 192.33,94.59"/>
    </edge>
    <edge id=":J30_5" function="internal">
        <lane id=":J30_5_0" index="0" speed="8.63" length="14.18" shape="196.86,90.07 199.08,91.33 201.98,91.35 205.57,90.13 209.84,87.67"/>
    </edge>
    <edge id=":J30_6" function="internal">
        <lane id=":J30_6_0" index="0" speed="13.89" length="23.10" shape="196.86,90.07 201.51,94.35 205.52,97.22 209.88,99.60 215.59,102.43"/>
        <lane id=":J30_6_1" index="1" speed="13.89" length="23.10" shape="194.59,92.33 199.38,96.71 203.67,99.78 208.32,102.37 214.16,105.29"/>
    </edge>
    <edge id=":J31_0" function="internal">
        <lane id=":J31_0_0" index="0" speed="13.89" length="2.10" shape="599.52,304.83 598.81,304.65 598.34,304.50 597.88,304.30 597.23,303.98"/>
        <lane id=":J31_0_1" index="1" speed="13.89" length="2.10" shape="600.29,301.72 599.79,301.59 599.45,301.49 599.12,301.35 598.66,301.12"/>
    </edge>
    <edge id=":J31_2" function="internal">
        <lane id=":J31_2_0" index="0" speed="13.89" length="0.70" shape="601.52,295.39 601.61,295.44 601.68,295.47 601.75,295.49 601.85,295.51"/>
        <lane id=":J31_2_1" index="1" speed="13.89" length="0.70" shape="600.09,298.25 600.37,298.39 600.56,298.48 600.77,298.54 601.07,298.62"/>
    </edge>
    <edge id=":J32_0" function="internal">
        <lane id=":J32_0_0" index="0" speed="13.89" length="3.73" shape="1001.92,404.57 1000.64,404.74 999.75,404.77 998.87,404.65 997.62,404.35"/>
        <lane id=":J32_0_1" index="1" speed="11.88" length="3.73" shape="1001.47,401.41 1000.55,401.53 999.92,401.55 999.29,401.46 998.40,401.25"/>
    </edge>
    <edge id=":J32_2" function="internal">
        <lane id=":J32_2_0" index="0" speed="13.89" length="1.24" shape="999.95,395.04 1000.13,395.08 1000.25,395.10 1000.38,395.09 1000.56,395.07"/>
        <lane id=":J32_2_1" index="1" speed="9.30" length="1.24" shape="999.17,398.14 999.71,398.27 1000.09,398.32 1000.47,398.31 1001.01,398.24"/>
    </edge>
    <edge id=":J33_0" function="internal">
        <lane id=":J33_0_0" index="0" speed="9.84" length="8.80" shape="1705.43,300.76 1703.93,302.42 1702.19,303.71 1700.24,304.61 1698.05,305.13"/>
        <lane id=":J33_0_1" index="1" speed="8.46" length="6.40" shape="1702.87,298.84 1701.70,300.30 1700.68,301.16 1699.45,301.63 1697.60,301.96"/>
    </edge>
    <edge id=":J33_2" function="internal">
        <lane id=":J33_2_0" index="0" speed="4.20" length="1.26" shape="1696.70,295.62 1697.01,295.55 1697.29,295.42 1697.54,295.24 1697.75,295.00"/>
        <lane id=":J33_2_1" index="1" speed="6.63" length="3.77" shape="1697.15,298.79 1698.09,298.57 1698.92,298.18 1699.67,297.63 1700.31,296.92"/>
    </edge>
    <edge id=":J34_0" function="internal">
        <lane id=":J34_0_0" index="0" speed="13.89" length="36.15" shape="1996.47,-113.94 1999.68,-106.56 1999.90,-98.53 1997.14,-89.85 1991.39,-80.52"/>
        <lane id=":J34_0_1" index="1" speed="13.68" length="32.20" shape="1993.81,-112.17 1996.56,-105.73 1996.64,-98.62 1994.06,-90.86 1988.83,-82.44"/>
    </edge>
    <edge id=":J34_2" function="internal">
        <lane id=":J34_2_0" index="0" speed="9.79" length="7.70" shape="1993.81,-112.17 1996.31,-105.33 1996.14,-104.94"/>
    </edge>
    <edge id=":J34_8" function="internal">
        <lane id=":J34_8_0" index="0" speed="9.79" length="20.56" shape="1996.14,-104.94 1994.10,-100.28 1988.29,-96.71 1979.97,-94.36"/>
    </edge>
    <edge id=":J34_3" function="internal">
        <lane id=":J34_3_0" index="0" speed="7.26" length="14.91" shape="1978.71,-100.64 1984.32,-102.13 1987.81,-103.96 1989.20,-106.12 1988.49,-108.62"/>
    </edge>
    <edge id=":J34_4" function="internal">
        <lane id=":J34_4_0" index="0" speed="8.06" length="23.67" shape="1979.34,-97.50 1985.75,-97.08 1989.95,-93.66 1991.21,-88.40 1988.83,-82.44"/>
    </edge>
    <edge id=":J34_5" function="internal">
        <lane id=":J34_5_0" index="0" speed="5.46" length="9.93" shape="1983.71,-86.28 1985.36,-89.04 1985.39,-90.79 1983.80,-91.52 1980.59,-91.22"/>
    </edge>
    <edge id=":J34_6" function="internal">
        <lane id=":J34_6_0" index="0" speed="11.93" length="24.31" shape="1983.71,-86.28 1987.91,-92.88 1990.11,-98.81 1990.30,-104.05 1988.49,-108.62"/>
        <lane id=":J34_6_1" index="1" speed="12.83" length="28.25" shape="1986.27,-84.36 1990.99,-91.87 1993.37,-98.72 1993.43,-104.89 1991.15,-110.39"/>
    </edge>
    <edge id=":J35_0" function="internal">
        <lane id=":J35_0_0" index="0" speed="4.11" length="1.43" shape="1597.70,-694.79 1597.47,-695.07 1597.20,-695.29 1596.88,-695.43 1596.52,-695.50"/>
        <lane id=":J35_0_1" index="1" speed="6.46" length="4.29" shape="1600.37,-696.57 1599.67,-697.41 1598.84,-698.05 1597.89,-698.47 1596.81,-698.68"/>
    </edge>
    <edge id=":J35_2" function="internal">
        <lane id=":J35_2_0" index="0" speed="9.57" length="10.00" shape="1597.39,-705.06 1599.91,-704.57 1602.13,-703.58 1604.06,-702.10 1605.69,-700.12"/>
        <lane id=":J35_2_1" index="1" speed="8.17" length="7.14" shape="1597.10,-701.87 1598.90,-701.52 1600.48,-700.81 1601.86,-699.76 1603.03,-698.34"/>
    </edge>
    <edge id=":J36_0" function="internal">
        <lane id=":J36_0_0" index="0" speed="13.89" length="1.79" shape="501.38,-795.05 501.12,-795.07 500.93,-795.06 500.76,-795.01 500.52,-794.89"/>
        <lane id=":J36_0_1" index="1" speed="7.41" length="1.79" shape="501.67,-798.24 500.88,-798.30 500.33,-798.26 499.80,-798.10 499.09,-797.75"/>
    </edge>
    <edge id=":J36_2" function="internal">
        <lane id=":J36_2_0" index="0" speed="11.06" length="5.37" shape="496.22,-803.48 497.89,-804.27 499.12,-804.67 500.40,-804.75 502.25,-804.62"/>
        <lane id=":J36_2_1" index="1" speed="9.41" length="5.37" shape="497.66,-800.62 498.85,-801.18 499.72,-801.46 500.64,-801.52 501.96,-801.43"/>
    </edge>
    <edge id=":J37_0" function="internal">
        <lane id=":J37_0_0" index="0" speed="13.89" length="1.68" shape="-96.33,-496.47 -96.55,-496.35 -96.69,-496.25 -96.81,-496.13 -96.95,-495.92"/>
        <lane id=":J37_0_1" index="1" speed="7.62" length="1.68" shape="-97.76,-499.33 -98.42,-498.99 -98.84,-498.69 -99.19,-498.31 -99.61,-497.70"/>
    </edge>
    <edge id=":J37_2" function="internal">
        <lane id=":J37_2_0" index="0" speed="11.39" length="5.03" shape="-104.94,-501.25 -103.95,-502.67 -103.15,-503.57 -102.16,-504.25 -100.63,-505.05"/>
        <lane id=":J37_2_1" index="1" speed="9.69" length="5.03" shape="-102.27,-499.47 -101.57,-500.49 -101.00,-501.13 -100.29,-501.62 -99.20,-502.19"/>
    </edge>
    <edge id=":J38_0" function="internal">
        <lane id=":J38_0_0" index="0" speed="8.95" length="19.74" shape="-295.66,-192.46 -300.19,-195.61 -302.41,-199.36 -302.34,-203.72 -299.97,-208.69"/>
        <lane id=":J38_0_1" index="1" speed="7.65" length="14.10" shape="-294.23,-195.33 -297.46,-197.57 -299.05,-200.25 -299.00,-203.37 -297.31,-206.92"/>
    </edge>
    <edge id=":J38_2" function="internal">
        <lane id=":J38_2_0" index="0" speed="3.90" length="2.82" shape="-291.98,-203.37 -292.32,-202.66 -292.33,-202.04 -292.02,-201.50 -291.37,-201.05"/>
        <lane id=":J38_2_1" index="1" speed="6.07" length="8.46" shape="-294.65,-205.14 -295.66,-203.01 -295.69,-201.14 -294.74,-199.54 -292.80,-198.19"/>
    </edge>
    <edge id=":J39_0" function="internal">
        <lane id=":J39_0_0" index="0" speed="7.10" length="11.97" shape="502.13,-85.01 500.05,-88.28 497.81,-90.11 495.41,-90.50 492.84,-89.46"/>
    </edge>
    <edge id=":J39_1" function="internal">
        <lane id=":J39_1_0" index="0" speed="13.89" length="25.99" shape="502.13,-85.01 498.95,-91.03 495.79,-96.07 492.14,-100.75 487.50,-105.71"/>
        <lane id=":J39_1_1" index="1" speed="13.89" length="25.99" shape="504.99,-86.44 501.72,-92.59 498.35,-97.91 494.49,-102.89 489.76,-107.98"/>
    </edge>
    <edge id=":J39_3" function="internal">
        <lane id=":J39_3_0" index="0" speed="13.89" length="5.31" shape="504.99,-86.44 503.13,-91.41"/>
    </edge>
    <edge id=":J39_4" function="internal">
        <lane id=":J39_4_0" index="0" speed="8.81" length="4.34" shape="504.99,-86.44 503.59,-90.56"/>
    </edge>
    <edge id=":J39_25" function="internal">
        <lane id=":J39_25_0" index="0" speed="13.89" length="22.83" shape="503.13,-91.41 502.45,-93.22 501.60,-100.00 502.45,-106.78 504.99,-113.56"/>
    </edge>
    <edge id=":J39_26" function="internal">
        <lane id=":J39_26_0" index="0" speed="8.81" length="19.27" shape="503.59,-90.56 502.73,-93.08 503.54,-97.81 507.42,-100.65 514.36,-101.60"/>
    </edge>
    <edge id=":J39_5" function="internal">
        <lane id=":J39_5_0" index="0" speed="5.74" length="9.18" shape="514.36,-95.20 511.66,-94.83 510.15,-93.73 509.84,-91.89 510.71,-89.31"/>
    </edge>
    <edge id=":J39_6" function="internal">
        <lane id=":J39_6_0" index="0" speed="13.89" length="22.76" shape="514.36,-95.20 507.94,-95.08 502.97,-94.41 498.30,-92.69 492.84,-89.46"/>
    </edge>
    <edge id=":J39_7" function="internal">
        <lane id=":J39_7_0" index="0" speed="13.89" length="29.60" shape="514.36,-95.20 506.55,-95.86 499.47,-97.83 493.12,-101.11 487.50,-105.71"/>
        <lane id=":J39_7_1" index="1" speed="13.89" length="27.08" shape="514.36,-98.40 507.19,-99.00 500.70,-100.79 494.89,-103.79 489.76,-107.98"/>
    </edge>
    <edge id=":J39_9" function="internal">
        <lane id=":J39_9_0" index="0" speed="8.81" length="23.62" shape="514.36,-98.40 507.42,-99.35 503.54,-102.19 502.73,-106.92 504.99,-113.56"/>
    </edge>
    <edge id=":J39_10" function="internal">
        <lane id=":J39_10_0" index="0" speed="5.74" length="9.18" shape="510.71,-110.69 509.84,-108.11 510.15,-106.27 511.66,-105.17 514.36,-104.80"/>
    </edge>
    <edge id=":J39_11" function="internal">
        <lane id=":J39_11_0" index="0" speed="13.71" length="22.20" shape="510.71,-110.69 508.71,-105.35 508.04,-100.00 508.71,-94.65 510.71,-89.31"/>
    </edge>
    <edge id=":J39_12" function="internal">
        <lane id=":J39_12_0" index="0" speed="13.89" length="27.27" shape="510.71,-110.69 507.20,-104.38 503.22,-98.80 498.51,-93.86 492.84,-89.46"/>
        <lane id=":J39_12_1" index="1" speed="13.89" length="27.27" shape="507.85,-112.12 504.51,-106.01 500.90,-100.85 496.57,-96.33 491.06,-92.12"/>
    </edge>
    <edge id=":J39_14" function="internal">
        <lane id=":J39_14_0" index="0" speed="9.09" length="23.18" shape="507.85,-112.12 503.94,-106.31 499.62,-103.67 494.90,-104.23 489.76,-107.98"/>
    </edge>
    <edge id=":J39_15" function="internal">
        <lane id=":J39_15_0" index="0" speed="6.23" length="10.21" shape="494.29,-112.50 496.43,-111.01 498.45,-110.92 500.35,-112.25 502.13,-114.99"/>
    </edge>
    <edge id=":J39_16" function="internal">
        <lane id=":J39_16_0" index="0" speed="13.89" length="22.06" shape="494.29,-112.50 498.43,-109.13 503.15,-106.73 508.46,-105.28 514.36,-104.80"/>
    </edge>
    <edge id=":J39_17" function="internal">
        <lane id=":J39_17_0" index="0" speed="13.89" length="28.04" shape="494.29,-112.50 499.21,-107.15 503.47,-101.61 507.25,-95.71 510.71,-89.31"/>
        <lane id=":J39_17_1" index="1" speed="13.89" length="28.04" shape="492.02,-110.24 496.85,-105.02 500.91,-99.76 504.49,-94.15 507.85,-87.88"/>
    </edge>
    <edge id=":J39_19" function="internal">
        <lane id=":J39_19_0" index="0" speed="9.16" length="6.38" shape="492.02,-110.24 495.90,-105.17"/>
    </edge>
    <edge id=":J39_27" function="internal">
        <lane id=":J39_27_0" index="0" speed="9.16" length="15.39" shape="495.90,-105.17 497.03,-100.47 495.42,-96.11 491.06,-92.12"/>
    </edge>
    <edge id=":J39_20" function="internal">
        <lane id=":J39_20_0" index="0" speed="6.37" length="9.89" shape="487.51,-97.44 489.37,-99.20 489.99,-101.16 489.36,-103.33 487.50,-105.71"/>
    </edge>
    <edge id=":J39_21" function="internal">
        <lane id=":J39_21_0" index="0" speed="13.89" length="23.21" shape="487.51,-97.44 492.68,-101.27 496.26,-104.94 499.13,-109.25 502.13,-114.99"/>
    </edge>
    <edge id=":J39_22" function="internal">
        <lane id=":J39_22_0" index="0" speed="13.89" length="27.33" shape="487.51,-97.44 493.81,-100.93 500.30,-103.20 507.11,-104.43 514.36,-104.80"/>
        <lane id=":J39_22_1" index="1" speed="13.89" length="27.33" shape="489.29,-94.78 495.31,-98.19 501.19,-100.27 507.39,-101.31 514.36,-101.60"/>
    </edge>
    <edge id=":J39_24" function="internal">
        <lane id=":J39_24_0" index="0" speed="9.34" length="21.60" shape="489.29,-94.78 494.09,-96.08 499.52,-94.92 504.48,-91.96 507.85,-87.88"/>
    </edge>
    <edge id=":J40_0" function="internal">
        <lane id=":J40_0_0" index="0" speed="9.84" length="8.80" shape="601.00,105.39 598.94,104.49 597.18,103.25 595.70,101.68 594.52,99.78"/>
        <lane id=":J40_0_1" index="1" speed="8.39" length="6.28" shape="602.01,102.36 600.54,101.71 599.28,100.83 598.23,99.71 597.38,98.34"/>
    </edge>
    <edge id=":J40_2" function="internal">
        <lane id=":J40_2_0" index="0" speed="4.20" length="1.26" shape="603.11,95.48 603.28,95.75 603.49,95.98 603.74,96.16 604.03,96.28"/>
        <lane id=":J40_2_1" index="1" speed="6.63" length="3.77" shape="600.25,96.91 600.75,97.73 601.38,98.40 602.14,98.93 603.02,99.32"/>
    </edge>
    <edge id=":J41_0" function="internal">
        <lane id=":J41_0_0" index="0" speed="9.84" length="8.80" shape="904.52,203.11 902.43,203.92 900.31,204.30 898.15,204.23 895.97,203.72"/>
        <lane id=":J41_0_1" index="1" speed="8.39" length="6.28" shape="903.09,200.25 901.59,200.83 900.08,201.10 898.54,201.05 896.98,200.68"/>
    </edge>
    <edge id=":J41_2" function="internal">
        <lane id=":J41_2_0" index="0" speed="4.20" length="1.26" shape="899.00,194.61 899.32,194.68 899.62,194.69 899.93,194.64 900.22,194.52"/>
        <lane id=":J41_2_1" index="1" speed="6.63" length="3.77" shape="897.99,197.64 898.93,197.86 899.85,197.89 900.76,197.73 901.66,197.38"/>
    </edge>
    <edge id=":J42_0" function="internal">
        <lane id=":J42_0_0" index="0" speed="13.89" length="0.70" shape="1101.85,104.49 1101.75,104.51 1101.68,104.53 1101.61,104.56 1101.52,104.61"/>
        <lane id=":J42_0_1" index="1" speed="13.89" length="0.70" shape="1101.07,101.38 1100.77,101.46 1100.56,101.52 1100.37,101.61 1100.09,101.75"/>
    </edge>
    <edge id=":J42_2" function="internal">
        <lane id=":J42_2_0" index="0" speed="13.89" length="2.10" shape="1097.23,96.02 1097.88,95.70 1098.34,95.50 1098.81,95.35 1099.52,95.17"/>
        <lane id=":J42_2_1" index="1" speed="13.89" length="2.10" shape="1098.66,98.88 1099.12,98.65 1099.45,98.51 1099.79,98.41 1100.29,98.28"/>
    </edge>
    <edge id=":J43_0" function="internal">
        <lane id=":J43_0_0" index="0" speed="13.89" length="20.34" shape="1510.85,2.73 1491.07,7.18"/>
        <lane id=":J43_0_1" index="1" speed="13.89" length="20.34" shape="1510.22,-0.41 1490.30,4.07"/>
    </edge>
    <edge id=":J43_2" function="internal">
        <lane id=":J43_2_0" index="0" speed="9.40" length="4.25" shape="1510.22,-0.41 1505.98,-0.19"/>
    </edge>
    <edge id=":J43_8" function="internal">
        <lane id=":J43_8_0" index="0" speed="9.40" length="15.00" shape="1505.98,-0.19 1505.05,-0.14 1500.95,-1.59 1497.90,-4.78 1495.93,-9.70"/>
    </edge>
    <edge id=":J43_3" function="internal">
        <lane id=":J43_3_0" index="0" speed="6.70" length="9.27" shape="1502.13,-11.25 1503.09,-8.85 1504.55,-7.29 1506.51,-6.57 1508.96,-6.69"/>
    </edge>
    <edge id=":J43_4" function="internal">
        <lane id=":J43_4_0" index="0" speed="9.26" length="19.35" shape="1499.03,-10.48 1499.58,-5.20 1498.30,-1.02 1495.21,2.07 1490.30,4.07"/>
    </edge>
    <edge id=":J43_5" function="internal">
        <lane id=":J43_5_0" index="0" speed="6.51" length="9.03" shape="1488.75,-2.13 1491.04,-3.07 1492.48,-4.51 1493.08,-6.46 1492.82,-8.93"/>
    </edge>
    <edge id=":J43_6" function="internal">
        <lane id=":J43_6_0" index="0" speed="13.89" length="20.65" shape="1488.75,-2.13 1508.96,-6.69"/>
        <lane id=":J43_6_1" index="1" speed="13.89" length="20.65" shape="1489.52,0.97 1509.59,-3.55"/>
    </edge>
    <edge id=":J44_0" function="internal">
        <lane id=":J44_0_0" index="0" speed="11.37" length="15.52" shape="1397.24,-391.23 1396.02,-393.78 1393.65,-396.19 1390.14,-398.48 1385.49,-400.63"/>
        <lane id=":J44_0_1" index="1" speed="12.39" length="18.53" shape="1400.35,-392.01 1398.86,-395.29 1396.08,-398.31 1392.02,-401.08 1386.68,-403.60"/>
    </edge>
    <edge id=":J44_2" function="internal">
        <lane id=":J44_2_0" index="0" speed="13.89" length="24.56" shape="1389.06,-409.55 1395.78,-406.30 1400.93,-402.55 1404.53,-398.30 1406.56,-393.56"/>
        <lane id=":J44_2_1" index="1" speed="13.33" length="21.55" shape="1387.87,-406.58 1393.90,-403.69 1398.51,-400.43 1401.69,-396.79 1403.45,-392.78"/>
    </edge>
    <edge id=":J44_4" function="internal">
        <lane id=":J44_4_0" index="0" speed="5.81" length="9.14" shape="1386.91,-393.70 1388.53,-395.84 1388.83,-397.71 1387.82,-399.31 1385.49,-400.63"/>
    </edge>
    <edge id=":J44_5" function="internal">
        <lane id=":J44_5_0" index="0" speed="7.77" length="18.80" shape="1389.18,-391.44 1394.45,-395.91 1398.59,-397.62 1401.59,-396.58 1403.45,-392.78"/>
    </edge>
    <edge id=":J45_0" function="internal">
        <lane id=":J45_0_0" index="0" speed="13.89" length="1.87" shape="899.98,-594.84 899.73,-594.93 899.54,-594.98 899.35,-594.97 899.08,-594.92"/>
        <lane id=":J45_0_1" index="1" speed="7.29" length="1.87" shape="901.17,-597.81 900.40,-598.10 899.84,-598.22 899.26,-598.20 898.45,-598.06"/>
    </edge>
    <edge id=":J45_2" function="internal">
        <lane id=":J45_2_0" index="0" speed="10.87" length="5.61" shape="897.19,-604.33 899.09,-604.67 900.43,-604.72 901.75,-604.43 903.55,-603.75"/>
        <lane id=":J45_2_1" index="1" speed="9.26" length="5.61" shape="897.82,-601.20 899.18,-601.44 900.14,-601.47 901.07,-601.26 902.36,-600.78"/>
    </edge>
    <edge id=":J46_0" function="internal">
        <lane id=":J46_0_0" index="0" speed="4.09" length="1.46" shape="404.01,-495.91 403.65,-495.80 403.35,-495.62 403.09,-495.37 402.89,-495.05"/>
        <lane id=":J46_0_1" index="1" speed="6.44" length="4.37" shape="403.38,-499.04 402.31,-498.71 401.39,-498.17 400.63,-497.43 400.03,-496.48"/>
    </edge>
    <edge id=":J46_2" function="internal">
        <lane id=":J46_2_0" index="0" speed="9.54" length="10.20" shape="394.31,-499.35 395.71,-501.56 397.49,-503.29 399.62,-504.54 402.13,-505.32"/>
        <lane id=":J46_2_1" index="1" speed="8.14" length="7.28" shape="397.17,-497.92 398.17,-499.49 399.44,-500.73 400.97,-501.63 402.76,-502.18"/>
    </edge>
    <edge id=":J47_0" function="internal">
        <lane id=":J47_0_0" index="0" speed="9.11" length="14.10" shape="299.87,-293.34 297.60,-296.29 296.49,-299.43 296.55,-302.76 297.77,-306.27"/>
        <lane id=":J47_0_1" index="1" speed="7.78" length="10.07" shape="302.13,-295.61 300.51,-297.71 299.72,-299.95 299.76,-302.33 300.63,-304.84"/>
    </edge>
    <edge id=":J47_2" function="internal">
        <lane id=":J47_2_0" index="0" speed="3.95" length="2.01" shape="306.36,-301.98 306.18,-301.48 306.17,-301.00 306.33,-300.55 306.66,-300.13"/>
        <lane id=":J47_2_1" index="1" speed="6.17" length="6.04" shape="303.49,-303.41 302.97,-301.90 302.95,-300.48 303.42,-299.13 304.39,-297.87"/>
    </edge>
    <edge id=":J48_0" function="internal">
        <lane id=":J48_0_0" index="0" speed="13.89" length="1.49" shape="799.20,-95.03 799.01,-95.13 798.86,-95.18 798.71,-95.20 798.49,-95.20"/>
        <lane id=":J48_0_1" index="1" speed="8.09" length="1.49" shape="800.64,-97.89 800.04,-98.18 799.61,-98.33 799.15,-98.39 798.49,-98.40"/>
    </edge>
    <edge id=":J48_2" function="internal">
        <lane id=":J48_2_0" index="0" speed="12.12" length="4.48" shape="798.49,-104.80 800.03,-104.78 801.10,-104.64 802.11,-104.29 803.50,-103.62"/>
        <lane id=":J48_2_1" index="1" speed="10.31" length="4.48" shape="798.49,-101.60 799.59,-101.58 800.35,-101.49 801.07,-101.23 802.07,-100.76"/>
    </edge>
    <edge id=":J49_0" function="internal">
        <lane id=":J49_0_0" index="0" speed="9.11" length="14.10" shape="1006.66,0.13 1003.71,2.40 1000.57,3.51 997.24,3.45 993.73,2.23"/>
        <lane id=":J49_0_1" index="1" speed="7.78" length="10.07" shape="1004.39,-2.13 1002.29,-0.51 1000.05,0.28 997.67,0.24 995.16,-0.63"/>
    </edge>
    <edge id=":J49_2" function="internal">
        <lane id=":J49_2_0" index="0" speed="3.95" length="2.01" shape="998.02,-6.36 998.52,-6.18 999.00,-6.17 999.45,-6.33 999.87,-6.66"/>
        <lane id=":J49_2_1" index="1" speed="6.17" length="6.04" shape="996.59,-3.49 998.10,-2.97 999.52,-2.95 1000.87,-3.42 1002.13,-4.39"/>
    </edge>
    <edge id=":J50_0" function="internal">
        <lane id=":J50_0_0" index="0" speed="7.75" length="11.25" shape="1192.84,-210.54 1195.94,-208.87 1198.69,-208.21 1201.09,-208.56 1203.14,-209.93"/>
        <lane id=":J50_0_1" index="1" speed="9.06" length="15.68" shape="1191.06,-207.88 1195.23,-205.68 1199.02,-204.92 1202.41,-205.58 1205.41,-207.67"/>
    </edge>
    <edge id=":J50_2" function="internal">
        <lane id=":J50_2_0" index="0" speed="9.58" length="23.96" shape="1191.06,-207.88 1196.62,-203.11 1199.14,-198.25 1198.61,-193.30 1195.05,-188.26"/>
        <lane id=":J50_2_1" index="1" speed="8.99" length="20.94" shape="1191.06,-207.88 1195.46,-203.93 1197.22,-199.72 1196.32,-195.25 1192.78,-190.52"/>
    </edge>
    <edge id=":J50_4" function="internal">
        <lane id=":J50_4_0" index="0" speed="6.12" length="9.06" shape="1188.26,-195.05 1189.79,-197.09 1190.18,-199.03 1189.42,-200.85 1187.51,-202.56"/>
        <lane id=":J50_4_1" index="1" speed="6.97" length="12.12" shape="1188.26,-195.05 1190.77,-198.12 1191.77,-200.85 1191.28,-203.21 1189.29,-205.22"/>
    </edge>
    <edge id=":J50_6" function="internal">
        <lane id=":J50_6_0" index="0" speed="13.89" length="21.05" shape="1188.26,-195.05 1203.14,-209.93"/>
        <lane id=":J50_6_1" index="1" speed="13.89" length="21.05" shape="1190.52,-192.78 1205.41,-207.67"/>
    </edge>
    <edge id=":J51_0" function="internal">
        <lane id=":J51_0_0" index="0" speed="4.09" length="1.46" shape="899.94,-394.27 899.61,-394.44 899.27,-394.53 898.91,-394.54 898.55,-394.46"/>
        <lane id=":J51_0_1" index="1" speed="6.44" length="4.37" shape="901.72,-396.93 900.72,-397.46 899.70,-397.72 898.63,-397.74 897.54,-397.49"/>
    </edge>
    <edge id=":J51_2" function="internal">
        <lane id=":J51_2_0" index="0" speed="9.54" length="10.20" shape="895.51,-403.56 898.07,-404.13 900.55,-404.10 902.95,-403.48 905.27,-402.26"/>
        <lane id=":J51_2_1" index="1" speed="8.14" length="7.28" shape="896.52,-400.53 898.35,-400.93 900.12,-400.91 901.84,-400.47 903.49,-399.59"/>
    </edge>
    <edge id=":J52_0" function="internal">
        <lane id=":J52_0_0" index="0" speed="4.20" length="1.26" shape="604.03,-296.28 603.74,-296.16 603.49,-295.98 603.28,-295.75 603.11,-295.48"/>
        <lane id=":J52_0_1" index="1" speed="6.63" length="3.77" shape="603.02,-299.32 602.14,-298.93 601.38,-298.40 600.75,-297.73 600.25,-296.91"/>
    </edge>
    <edge id=":J52_2" function="internal">
        <lane id=":J52_2_0" index="0" speed="9.84" length="8.80" shape="594.52,-299.78 595.70,-301.68 597.18,-303.25 598.94,-304.49 601.00,-305.39"/>
        <lane id=":J52_2_1" index="1" speed="8.39" length="6.28" shape="597.38,-298.34 598.23,-299.71 599.28,-300.83 600.54,-301.71 602.01,-302.36"/>
    </edge>

    <edge id="-E31" from="J30" to="J29" priority="-1">
        <lane id="-E31_0" index="0" speed="13.89" length="131.14" shape="190.07,96.86 97.34,4.13"/>
        <lane id="-E31_1" index="1" speed="13.89" length="131.14" shape="192.33,94.59 99.60,1.87"/>
    </edge>
    <edge id="-E32" from="J31" to="J30" priority="-1">
        <lane id="-E32_0" index="0" speed="13.89" length="431.48" shape="597.23,303.98 211.30,111.01"/>
        <lane id="-E32_1" index="1" speed="13.89" length="431.48" shape="598.66,301.12 212.73,108.15"/>
    </edge>
    <edge id="-E33" from="J32" to="J31" priority="-1">
        <lane id="-E33_0" index="0" speed="13.89" length="410.35" shape="997.62,404.35 599.52,304.83"/>
        <lane id="-E33_1" index="1" speed="13.89" length="410.35" shape="998.40,401.25 600.29,301.72"/>
    </edge>
    <edge id="-E34" from="J33" to="J32" priority="-1">
        <lane id="-E34_0" index="0" speed="13.89" length="703.20" shape="1698.05,305.13 1001.92,404.57"/>
        <lane id="-E34_1" index="1" speed="13.89" length="703.20" shape="1697.60,301.96 1001.47,401.41"/>
    </edge>
    <edge id="-E35" from="J34" to="J33" priority="-1">
        <lane id="-E35_0" index="0" speed="13.89" length="476.60" shape="1991.39,-80.52 1705.43,300.76"/>
        <lane id="-E35_1" index="1" speed="13.89" length="476.60" shape="1988.83,-82.44 1702.87,298.84"/>
    </edge>
    <edge id="-E36" from="J35" to="J34" priority="-1">
        <lane id="-E36_0" index="0" speed="13.89" length="704.49" shape="1605.69,-700.12 1996.47,-113.94"/>
        <lane id="-E36_1" index="1" speed="13.89" length="704.49" shape="1603.03,-698.34 1993.81,-112.17"/>
    </edge>
    <edge id="-E37" from="J36" to="J35" priority="-1">
        <lane id="-E37_0" index="0" speed="13.89" length="1099.65" shape="502.25,-804.62 1597.39,-705.06"/>
        <lane id="-E37_1" index="1" speed="13.89" length="1099.65" shape="501.96,-801.43 1597.10,-701.87"/>
    </edge>
    <edge id="-E38" from="J37" to="J36" priority="-1">
        <lane id="-E38_0" index="0" speed="13.89" length="667.30" shape="-100.63,-505.05 496.22,-803.48"/>
        <lane id="-E38_1" index="1" speed="13.89" length="667.30" shape="-99.20,-502.19 497.66,-800.62"/>
    </edge>
    <edge id="-E39" from="J38" to="J37" priority="-1">
        <lane id="-E39_0" index="0" speed="13.89" length="351.61" shape="-299.97,-208.69 -104.94,-501.25"/>
        <lane id="-E39_1" index="1" speed="13.89" length="351.61" shape="-297.31,-206.92 -102.27,-499.47"/>
    </edge>
    <edge id="-E40" from="J29" to="J38" priority="-1">
        <lane id="-E40_0" index="0" speed="13.89" length="438.93" shape="96.92,3.83 -295.66,-192.46"/>
        <lane id="-E40_1" index="1" speed="13.89" length="438.93" shape="98.36,0.97 -294.23,-195.33"/>
    </edge>
    <edge id="-E41" from="J39" to="J30" priority="-1">
        <lane id="-E41_0" index="0" speed="13.89" length="333.72" shape="492.84,-89.46 215.17,95.66"/>
        <lane id="-E41_1" index="1" speed="13.89" length="333.72" shape="491.06,-92.12 213.39,93.00"/>
    </edge>
    <edge id="-E42" from="J40" to="J39" priority="-1">