<?xml version="1.0" encoding="UTF-8"?>

<!-- generated on 2022-12-08 15:42:16 by Eclipse SUMO netedit Version 1.15.0
-->

<routes xmlns:xsi="http://www.w3.org/2001/XMLSchema-instance" xsi:noNamespaceSchemaLocation="http://sumo.dlr.de/xsd/routes_file.xsd">
    <!-- Routes -->
    <route id="r_0" edges="E40 E31 E32 E33 E34 E35"/>
</routes>
