<?xml version="1.0" encoding="UTF-8"?>

<!-- generated on 2022-11-17 16:51:52 by Eclipse SUMO netconvert Version 1.14.0
<configuration xmlns:xsi="http://www.w3.org/2001/XMLSchema-instance" xsi:noNamespaceSchemaLocation="http://sumo.dlr.de/xsd/netconvertConfiguration.xsd">

    <input>
        <type-files value="/usr/share/sumo/data/typemap/osmNetconvert.typ.xml"/>
        <osm-files value="osm_bbox.osm.xml.gz"/>
    </input>

    <output>
        <output-file value="osm.net.xml"/>
        <output.street-names value="true"/>
        <output.original-names value="true"/>
        <ptstop-output value="osm_stops.add.xml"/>
        <ptline-output value="osm_ptlines.xml"/>
    </output>

    <projection>
        <proj value="+proj=merc +a=6378137 +b=6378137 +lat_ts=0.0 +lon_0=0.0 +x_0=0.0 +y_0=0 +k=1.0 +units=m +nadgrids=@null +wktext +no_defs"/>
    </projection>

    <processing>
        <geometry.remove value="true"/>
        <roundabouts.guess value="true"/>
    </processing>

    <tls_building>
        <tls.discard-simple value="true"/>
        <tls.join value="true"/>
        <tls.guess-signals value="true"/>
        <tls.default-type value="actuated"/>
    </tls_building>

    <ramp_guessing>
        <ramps.guess value="true"/>
    </ramp_guessing>

    <junctions>
        <junctions.join value="true"/>
        <junctions.corner-detail value="5"/>
    </junctions>

    <railway>
        <railway.topology.repair value="true"/>
    </railway>

    <report>
        <verbose value="true"/>
    </report>

</configuration>
-->

<net version="1.9" junctionCornerDetail="5" limitTurnSpeed="5.50" xmlns:xsi="http://www.w3.org/2001/XMLSchema-instance" xsi:noNamespaceSchemaLocation="http://sumo.dlr.de/xsd/net_file.xsd">

    <location netOffset="955150.26,-5058917.69" convBoundary="0.00,0.00,4746.75,4546.03" origBoundary="-8.580261,41.315013,-8.537620,41.345679" projParameter="+proj=merc +a=6378137 +b=6378137 +lat_ts=0.0 +lon_0=0.0 +x_0=0.0 +y_0=0 +k=1.0 +units=m +nadgrids=@null +wktext +no_defs"/>

    <type id="highway.bridleway" priority="1" numLanes="1" speed="2.78" allow="pedestrian" oneway="1" width="2.00"/>
    <type id="highway.bus_guideway" priority="1" numLanes="1" speed="27.78" allow="bus" oneway="1"/>
    <type id="highway.cycleway" priority="1" numLanes="1" speed="5.56" allow="bicycle" oneway="0" width="1.00"/>
    <type id="highway.footway" priority="1" numLanes="1" speed="2.78" allow="pedestrian" oneway="1" width="2.00"/>
    <type id="highway.ford" priority="1" numLanes="1" speed="2.78" allow="army" oneway="0"/>
    <type id="highway.living_street" priority="2" numLanes="1" speed="2.78" disallow="tram rail_urban rail rail_electric rail_fast ship" oneway="0"/>
    <type id="highway.motorway" priority="14" numLanes="2" speed="39.44" allow="private emergency authority army vip passenger hov taxi bus coach delivery truck trailer motorcycle evehicle custom1 custom2" oneway="1"/>
    <type id="highway.motorway_link" priority="9" numLanes="1" speed="22.22" allow="private emergency authority army vip passenger hov taxi bus coach delivery truck trailer motorcycle evehicle custom1 custom2" oneway="1"/>
    <type id="highway.path" priority="1" numLanes="1" speed="5.56" allow="pedestrian bicycle" oneway="0" width="2.00"/>
    <type id="highway.pedestrian" priority="1" numLanes="1" speed="2.78" allow="pedestrian" oneway="1" width="2.00"/>
    <type id="highway.primary" priority="12" numLanes="2" speed="27.78" disallow="tram rail_urban rail rail_electric rail_fast ship" oneway="0"/>
    <type id="highway.primary_link" priority="7" numLanes="1" speed="22.22" disallow="tram rail_urban rail rail_electric rail_fast ship" oneway="0"/>
    <type id="highway.raceway" priority="15" numLanes="2" speed="83.33" allow="vip" oneway="0"/>
    <type id="highway.residential" priority="3" numLanes="1" speed="13.89" disallow="tram rail_urban rail rail_electric rail_fast ship" oneway="0"/>
    <type id="highway.secondary" priority="11" numLanes="1" speed="27.78" disallow="tram rail_urban rail rail_electric rail_fast ship" oneway="0"/>
    <type id="highway.secondary_link" priority="6" numLanes="1" speed="22.22" disallow="tram rail_urban rail rail_electric rail_fast ship" oneway="0"/>
    <type id="highway.service" priority="1" numLanes="1" speed="5.56" allow="pedestrian delivery bicycle" oneway="0"/>
    <type id="highway.stairs" priority="1" numLanes="1" speed="1.39" allow="pedestrian" oneway="1" width="2.00"/>
    <type id="highway.step" priority="1" numLanes="1" speed="1.39" allow="pedestrian" oneway="1" width="2.00"/>
    <type id="highway.steps" priority="1" numLanes="1" speed="1.39" allow="pedestrian" oneway="1" width="2.00"/>
    <type id="highway.tertiary" priority="10" numLanes="1" speed="22.22" disallow="tram rail_urban rail rail_electric rail_fast ship" oneway="0"/>
    <type id="highway.tertiary_link" priority="5" numLanes="1" speed="22.22" disallow="tram rail_urban rail rail_electric rail_fast ship" oneway="0"/>
    <type id="highway.track" priority="1" numLanes="1" speed="5.56" allow="pedestrian motorcycle moped bicycle" oneway="0"/>
    <type id="highway.trunk" priority="13" numLanes="2" speed="27.78" disallow="pedestrian bicycle tram rail_urban rail rail_electric rail_fast ship" oneway="0"/>
    <type id="highway.trunk_link" priority="8" numLanes="1" speed="22.22" disallow="pedestrian bicycle tram rail_urban rail rail_electric rail_fast ship" oneway="0"/>
    <type id="highway.unclassified" priority="4" numLanes="1" speed="13.89" disallow="tram rail_urban rail rail_electric rail_fast ship" oneway="0"/>
    <type id="highway.unsurfaced" priority="1" numLanes="1" speed="8.33" disallow="tram rail_urban rail rail_electric rail_fast ship" oneway="0"/>
    <type id="railway.highspeed" priority="21" numLanes="1" speed="69.44" allow="rail_fast" oneway="1"/>
    <type id="railway.light_rail" priority="19" numLanes="1" speed="27.78" allow="rail_urban" oneway="1"/>
    <type id="railway.preserved" priority="16" numLanes="1" speed="27.78" allow="rail" oneway="1"/>
    <type id="railway.rail" priority="20" numLanes="1" speed="44.44" allow="rail" oneway="1"/>
    <type id="railway.subway" priority="18" numLanes="1" speed="27.78" allow="rail_urban" oneway="1"/>
    <type id="railway.tram" priority="17" numLanes="1" speed="13.89" allow="tram" oneway="1"/>

    <edge id=":105885557#1-AddedOnRampNode_0" function="internal">
        <lane id=":105885557#1-AddedOnRampNode_0_0" index="0" disallow="tram rail_urban rail rail_electric rail_fast ship" speed="27.78" length="8.00" shape="2171.21,3297.87 2163.37,3296.29"/>
    </edge>
    <edge id=":1103102824_0" function="internal">
        <lane id=":1103102824_0_0" index="0" disallow="tram rail_urban rail rail_electric rail_fast ship" speed="14.78" length="7.81" shape="2286.10,3319.48 2284.13,3318.37 2282.61,3317.96 2280.97,3317.87 2278.65,3317.68"/>
    </edge>
    <edge id=":1103102824_1" function="internal">
        <lane id=":1103102824_1_0" index="0" disallow="tram rail_urban rail rail_electric rail_fast ship" speed="13.96" length="7.91" shape="2286.10,3319.48 2284.13,3318.20 2282.81,3317.23 2281.75,3316.02 2280.57,3314.03"/>
    </edge>
    <edge id=":1103654836_0" function="internal">
        <lane id=":1103654836_0_0" index="0" disallow="tram rail_urban rail rail_electric rail_fast ship" speed="6.82" length="9.33" shape="1823.36,3020.57 1820.96,3019.57 1818.79,3019.49 1816.86,3020.34 1815.16,3022.10"/>
    </edge>
    <edge id=":1103654836_1" function="internal">
        <lane id=":1103654836_1_0" index="0" disallow="tram rail_urban rail rail_electric rail_fast ship" speed="7.95" length="14.30" shape="1823.36,3020.57 1820.27,3018.14 1818.74,3015.31 1818.76,3012.09 1820.34,3008.49"/>
    </edge>
    <edge id=":1103654836_2" function="internal">
        <lane id=":1103654836_2_0" index="0" disallow="tram rail_urban rail rail_electric rail_fast ship" speed="3.65" length="4.67" shape="1823.36,3020.57 1822.72,3019.28 1822.78,3018.39 1823.53,3017.90 1824.97,3017.81"/>
    </edge>
    <edge id=":1103654836_3" function="internal">
        <lane id=":1103654836_3_0" index="0" disallow="tram rail_urban rail rail_electric rail_fast ship" speed="6.45" length="9.03" shape="1823.06,3010.17 1822.06,3012.45 1822.05,3014.48 1823.02,3016.27 1824.97,3017.81"/>
    </edge>
    <edge id=":1103654836_4" function="internal">
        <lane id=":1103654836_4_0" index="0" disallow="tram rail_urban rail rail_electric rail_fast ship" speed="13.89" length="14.31" shape="1823.06,3010.17 1815.16,3022.10"/>
    </edge>
    <edge id=":1103654836_5" function="internal">
        <lane id=":1103654836_5_0" index="0" disallow="tram rail_urban rail rail_electric rail_fast ship" speed="3.65" length="1.44" shape="1823.06,3010.17 1821.75,3010.77"/>
    </edge>
    <edge id=":1103654836_9" function="internal">
        <lane id=":1103654836_9_0" index="0" disallow="tram rail_urban rail rail_electric rail_fast ship" speed="3.65" length="3.23" shape="1821.75,3010.77 1820.86,3010.69 1820.39,3009.93 1820.34,3008.49"/>
    </edge>
    <edge id=":1103654836_6" function="internal">
        <lane id=":1103654836_6_0" index="0" disallow="tram rail_urban rail rail_electric rail_fast ship" speed="13.89" length="14.11" shape="1812.55,3020.25 1820.34,3008.49"/>
    </edge>
    <edge id=":1103654836_7" function="internal">
        <lane id=":1103654836_7_0" index="0" disallow="tram rail_urban rail rail_electric rail_fast ship" speed="8.27" length="3.76" shape="1812.55,3020.25 1815.14,3017.53"/>
    </edge>
    <edge id=":1103654836_8" function="internal">
        <lane id=":1103654836_8_0" index="0" disallow="tram rail_urban rail rail_electric rail_fast ship" speed="3.65" length="1.44" shape="1812.55,3020.25 1813.90,3019.73"/>
    </edge>
    <edge id=":1103654836_10" function="internal">
        <lane id=":1103654836_10_0" index="0" disallow="tram rail_urban rail rail_electric rail_fast ship" speed="8.27" length="10.40" shape="1815.14,3017.53 1818.08,3016.22 1821.35,3016.31 1824.97,3017.81"/>
    </edge>
    <edge id=":1103654836_11" function="internal">
        <lane id=":1103654836_11_0" index="0" disallow="tram rail_urban rail rail_electric rail_fast ship" speed="3.65" length="3.23" shape="1813.90,3019.73 1814.78,3019.87 1815.20,3020.66 1815.16,3022.10"/>
    </edge>
    <edge id=":1103654845_0" function="internal">
        <lane id=":1103654845_0_0" index="0" disallow="tram rail_urban rail rail_electric rail_fast ship" speed="8.32" length="14.84" shape="1936.56,3257.64 1931.75,3257.07 1928.06,3257.64 1925.49,3259.34 1924.04,3262.17"/>
    </edge>
    <edge id=":1103654845_1" function="internal">
        <lane id=":1103654845_1_0" index="0" disallow="tram rail_urban rail rail_electric rail_fast ship" speed="27.78" length="19.13" shape="1936.56,3257.64 1917.83,3253.82"/>
        <lane id=":1103654845_1_1" index="1" disallow="tram rail_urban rail rail_electric rail_fast ship" speed="27.78" length="19.13" shape="1937.22,3254.51 1918.45,3250.68"/>
    </edge>
    <edge id=":1103654845_3" function="internal">
        <lane id=":1103654845_3_0" index="0" disallow="tram rail_urban rail rail_electric rail_fast ship" speed="8.63" length="3.45" shape="1937.22,3254.51 1934.06,3253.13"/>
    </edge>
    <edge id=":1103654845_4" function="internal">
        <lane id=":1103654845_4_0" index="0" disallow="tram rail_urban rail rail_electric rail_fast ship" speed="3.65" length="1.44" shape="1937.22,3254.51 1936.21,3253.48"/>
    </edge>
    <edge id=":1103654845_18" function="internal">
        <lane id=":1103654845_18_0" index="0" disallow="tram rail_urban rail rail_electric rail_fast ship" speed="8.63" length="14.78" shape="1934.06,3253.13 1933.39,3252.83 1931.29,3249.79 1930.91,3245.39 1932.26,3239.61"/>
    </edge>
    <edge id=":1103654845_19" function="internal">
        <lane id=":1103654845_19_0" index="0" disallow="tram rail_urban rail rail_electric rail_fast ship" speed="3.65" length="3.23" shape="1936.21,3253.48 1935.98,3252.61 1936.54,3251.91 1937.88,3251.38"/>
    </edge>
    <edge id=":1103654845_5" function="internal">
        <lane id=":1103654845_5_0" index="0" disallow="tram rail_urban rail rail_electric rail_fast ship" speed="6.28" length="9.10" shape="1935.06,3241.32 1934.53,3243.92 1934.94,3245.94 1936.27,3247.38 1938.54,3248.24"/>
    </edge>
    <edge id=":1103654845_6" function="internal">
        <lane id=":1103654845_6_0" index="0" disallow="tram rail_urban rail rail_electric rail_fast ship" speed="13.89" length="23.61" shape="1935.06,3241.32 1932.83,3245.89 1929.42,3251.70 1926.07,3257.54 1924.04,3262.17"/>
    </edge>
    <edge id=":1103654845_7" function="internal">
        <lane id=":1103654845_7_0" index="0" disallow="tram rail_urban rail rail_electric rail_fast ship" speed="10.17" length="21.15" shape="1935.06,3241.32 1932.50,3246.34 1928.88,3249.58 1924.20,3251.02 1918.45,3250.68"/>
    </edge>
    <edge id=":1103654845_8" function="internal">
        <lane id=":1103654845_8_0" index="0" disallow="tram rail_urban rail rail_electric rail_fast ship" speed="3.68" length="4.78" shape="1935.06,3241.32 1933.72,3241.94 1932.81,3241.86 1932.32,3241.09 1932.26,3239.61"/>
    </edge>
    <edge id=":1103654845_9" function="internal">
        <lane id=":1103654845_9_0" index="0" disallow="tram rail_urban rail rail_electric rail_fast ship" speed="8.59" length="14.81" shape="1919.69,3244.40 1924.32,3244.86 1927.95,3244.21 1930.60,3242.46 1932.26,3239.61"/>
    </edge>
    <edge id=":1103654845_10" function="internal">
        <lane id=":1103654845_10_0" index="0" disallow="tram rail_urban rail rail_electric rail_fast ship" speed="27.78" length="19.21" shape="1919.69,3244.40 1938.54,3248.24"/>
        <lane id=":1103654845_10_1" index="1" disallow="tram rail_urban rail rail_electric rail_fast ship" speed="27.78" length="19.21" shape="1919.07,3247.54 1937.88,3251.38"/>
    </edge>
    <edge id=":1103654845_12" function="internal">
        <lane id=":1103654845_12_0" index="0" disallow="tram rail_urban rail rail_electric rail_fast ship" speed="8.66" length="3.35" shape="1919.07,3247.54 1922.13,3248.90"/>
    </edge>
    <edge id=":1103654845_13" function="internal">
        <lane id=":1103654845_13_0" index="0" disallow="tram rail_urban rail rail_electric rail_fast ship" speed="3.65" length="1.44" shape="1919.07,3247.54 1920.09,3248.55"/>
    </edge>
    <edge id=":1103654845_20" function="internal">
        <lane id=":1103654845_20_0" index="0" disallow="tram rail_urban rail rail_electric rail_fast ship" speed="8.66" length="14.24" shape="1922.13,3248.90 1922.52,3249.07 1924.50,3252.02 1925.01,3256.39 1924.04,3262.17"/>
    </edge>
    <edge id=":1103654845_21" function="internal">
        <lane id=":1103654845_21_0" index="0" disallow="tram rail_urban rail rail_electric rail_fast ship" speed="3.65" length="3.23" shape="1920.09,3248.55 1920.33,3249.42 1919.78,3250.12 1918.45,3250.68"/>
    </edge>
    <edge id=":1103654845_14" function="internal">
        <lane id=":1103654845_14_0" index="0" disallow="tram rail_urban rail rail_electric rail_fast ship" speed="6.26" length="8.66" shape="1921.16,3260.55 1921.52,3257.96 1921.08,3255.98 1919.86,3254.60 1917.83,3253.82"/>
    </edge>
    <edge id=":1103654845_15" function="internal">
        <lane id=":1103654845_15_0" index="0" disallow="tram rail_urban rail rail_electric rail_fast ship" speed="13.89" length="23.72" shape="1921.16,3260.55 1923.20,3255.90 1926.58,3250.04 1930.02,3244.20 1932.26,3239.61"/>
    </edge>
    <edge id=":1103654845_16" function="internal">
        <lane id=":1103654845_16_0" index="0" disallow="tram rail_urban rail rail_electric rail_fast ship" speed="9.91" length="21.50" shape="1921.16,3260.55 1923.39,3255.46 1926.92,3252.24 1931.75,3250.88 1937.88,3251.38"/>
    </edge>
    <edge id=":1103654845_17" function="internal">
        <lane id=":1103654845_17_0" index="0" disallow="tram rail_urban rail rail_electric rail_fast ship" speed="3.69" length="4.83" shape="1921.16,3260.55 1922.49,3259.87 1923.41,3259.92 1923.93,3260.68 1924.04,3262.17"/>
    </edge>
    <edge id=":1103668420_0" function="internal">
        <lane id=":1103668420_0_0" index="0" disallow="tram rail_urban rail rail_electric rail_fast ship" speed="5.81" length="9.14" shape="2736.70,3171.74 2734.29,3170.58 2732.40,3170.65 2731.03,3171.96 2730.18,3174.50"/>
    </edge>
    <edge id=":1103668420_1" function="internal">
        <lane id=":1103668420_1_0" index="0" disallow="tram rail_urban rail rail_electric rail_fast ship" speed="9.82" length="15.21" shape="2736.70,3171.74 2733.18,3168.90 2730.85,3165.86 2729.72,3162.63 2729.78,3159.20"/>
    </edge>
    <edge id=":1103668420_2" function="internal">
        <lane id=":1103668420_2_0" index="0" disallow="tram rail_urban rail rail_electric rail_fast ship" speed="3.65" length="4.67" shape="2736.70,3171.74 2736.15,3170.41 2736.26,3169.52 2737.03,3169.07 2738.47,3169.07"/>
    </edge>
    <edge id=":1103668420_3" function="internal">
        <lane id=":1103668420_3_0" index="0" disallow="tram rail_urban rail rail_electric rail_fast ship" speed="8.59" length="11.46" shape="2732.93,3159.79 2732.92,3162.23 2733.85,3164.60 2735.70,3166.87 2738.47,3169.07"/>
    </edge>
    <edge id=":1103668420_4" function="internal">
        <lane id=":1103668420_4_0" index="0" disallow="tram rail_urban rail rail_electric rail_fast ship" speed="13.89" length="14.96" shape="2732.93,3159.79 2730.18,3174.50"/>
    </edge>
    <edge id=":1103668420_5" function="internal">
        <lane id=":1103668420_5_0" index="0" disallow="tram rail_urban rail rail_electric rail_fast ship" speed="3.65" length="1.44" shape="2732.93,3159.79 2731.92,3160.82"/>
    </edge>
    <edge id=":1103668420_9" function="internal">
        <lane id=":1103668420_9_0" index="0" disallow="tram rail_urban rail rail_electric rail_fast ship" speed="3.65" length="3.23" shape="2731.92,3160.82 2731.06,3161.06 2730.35,3160.52 2729.78,3159.20"/>
    </edge>
    <edge id=":1103668420_6" function="internal">
        <lane id=":1103668420_6_0" index="0" disallow="tram rail_urban rail rail_electric rail_fast ship" speed="13.89" length="14.97" shape="2727.04,3173.91 2729.78,3159.20"/>
    </edge>
    <edge id=":1103668420_7" function="internal">
        <lane id=":1103668420_7_0" index="0" disallow="tram rail_urban rail rail_electric rail_fast ship" speed="7.48" length="4.70" shape="2727.04,3173.91 2728.52,3169.46"/>
    </edge>
    <edge id=":1103668420_8" function="internal">
        <lane id=":1103668420_8_0" index="0" disallow="tram rail_urban rail rail_electric rail_fast ship" speed="3.65" length="1.44" shape="2727.04,3173.91 2728.04,3172.88"/>
    </edge>
    <edge id=":1103668420_10" function="internal">
        <lane id=":1103668420_10_0" index="0" disallow="tram rail_urban rail rail_electric rail_fast ship" speed="7.48" length="11.34" shape="2728.52,3169.46 2730.92,3167.16 2734.24,3167.03 2738.47,3169.07"/>
    </edge>
    <edge id=":1103668420_11" function="internal">
        <lane id=":1103668420_11_0" index="0" disallow="tram rail_urban rail rail_electric rail_fast ship" speed="3.65" length="3.23" shape="2728.04,3172.88 2728.90,3172.63 2729.62,3173.17 2730.18,3174.50"/>
    </edge>
    <edge id=":1103668429_0" function="internal">
        <lane id=":1103668429_0_0" index="0" disallow="tram rail_urban rail rail_electric rail_fast ship" speed="6.26" length="9.05" shape="3080.54,3065.88 3078.07,3065.35 3076.12,3065.79 3074.68,3067.17 3073.75,3069.52"/>
    </edge>
    <edge id=":1103668429_1" function="internal">
        <lane id=":1103668429_1_0" index="0" disallow="tram rail_urban rail rail_electric rail_fast ship" speed="13.89" length="16.22" shape="3080.54,3065.88 3076.90,3064.36 3073.18,3062.48 3069.58,3060.37 3066.32,3058.16"/>
    </edge>
    <edge id=":1103668429_2" function="internal">
        <lane id=":1103668429_2_0" index="0" disallow="tram rail_urban rail rail_electric rail_fast ship" speed="8.34" length="15.41" shape="3080.54,3065.88 3076.97,3063.91 3074.89,3061.17 3074.32,3057.67 3075.24,3053.42"/>
    </edge>
    <edge id=":1103668429_3" function="internal">
        <lane id=":1103668429_3_0" index="0" disallow="tram rail_urban rail rail_electric rail_fast ship" speed="3.65" length="4.67" shape="3080.54,3065.88 3079.69,3064.71 3079.59,3063.83 3080.24,3063.21 3081.64,3062.88"/>
    </edge>
    <edge id=":1103668429_4" function="internal">
        <lane id=":1103668429_4_0" index="0" disallow="tram rail_urban rail rail_electric rail_fast ship" speed="6.92" length="10.28" shape="3078.25,3054.50 3077.61,3057.38 3077.97,3059.74 3079.31,3061.57 3081.64,3062.88"/>
    </edge>
    <edge id=":1103668429_5" function="internal">
        <lane id=":1103668429_5_0" index="0" disallow="tram rail_urban rail rail_electric rail_fast ship" speed="13.89" length="15.69" shape="3078.25,3054.50 3076.99,3058.15 3075.80,3061.95 3074.70,3065.78 3073.75,3069.52"/>
    </edge>
    <edge id=":1103668429_6" function="internal">
        <lane id=":1103668429_6_0" index="0" disallow="tram rail_urban rail rail_electric rail_fast ship" speed="7.59" length="4.29" shape="3078.25,3054.50 3076.24,3058.29"/>
    </edge>
    <edge id=":1103668429_7" function="internal">
        <lane id=":1103668429_7_0" index="0" disallow="tram rail_urban rail rail_electric rail_fast ship" speed="3.65" length="1.44" shape="3078.25,3054.50 3077.09,3055.36"/>
    </edge>
    <edge id=":1103668429_16" function="internal">
        <lane id=":1103668429_16_0" index="0" disallow="tram rail_urban rail rail_electric rail_fast ship" speed="7.59" length="11.12" shape="3076.24,3058.29 3076.18,3058.40 3073.50,3060.31 3070.22,3060.23 3066.32,3058.16"/>
    </edge>
    <edge id=":1103668429_17" function="internal">
        <lane id=":1103668429_17_0" index="0" disallow="tram rail_urban rail rail_electric rail_fast ship" speed="3.65" length="3.23" shape="3077.09,3055.36 3076.20,3055.46 3075.58,3054.82 3075.24,3053.42"/>
    </edge>
    <edge id=":1103668429_8" function="internal">
        <lane id=":1103668429_8_0" index="0" disallow="tram rail_urban rail rail_electric rail_fast ship" speed="5.98" length="9.08" shape="3068.20,3055.57 3070.50,3056.80 3072.44,3056.84 3074.02,3055.72 3075.24,3053.42"/>
    </edge>
    <edge id=":1103668429_9" function="internal">
        <lane id=":1103668429_9_0" index="0" disallow="tram rail_urban rail rail_electric rail_fast ship" speed="13.89" length="15.34" shape="3068.20,3055.57 3071.35,3057.72 3074.68,3059.68 3078.13,3061.42 3081.64,3062.88"/>
    </edge>
    <edge id=":1103668429_10" function="internal">
        <lane id=":1103668429_10_0" index="0" disallow="tram rail_urban rail rail_electric rail_fast ship" speed="10.05" length="15.99" shape="3068.20,3055.57 3071.38,3058.51 3073.36,3061.81 3074.15,3065.48 3073.75,3069.52"/>
    </edge>
    <edge id=":1103668429_11" function="internal">
        <lane id=":1103668429_11_0" index="0" disallow="tram rail_urban rail rail_electric rail_fast ship" speed="3.65" length="4.67" shape="3068.20,3055.57 3068.70,3056.93 3068.55,3057.81 3067.76,3058.22 3066.32,3058.16"/>
    </edge>
    <edge id=":1103668429_12" function="internal">
        <lane id=":1103668429_12_0" index="0" disallow="tram rail_urban rail rail_electric rail_fast ship" speed="8.85" length="12.22" shape="3070.64,3068.79 3070.93,3065.73 3070.31,3062.94 3068.77,3060.42 3066.32,3058.16"/>
    </edge>
    <edge id=":1103668429_13" function="internal">
        <lane id=":1103668429_13_0" index="0" disallow="tram rail_urban rail rail_electric rail_fast ship" speed="13.89" length="16.05" shape="3070.64,3068.79 3071.60,3065.00 3072.73,3061.04 3073.97,3057.12 3075.24,3053.42"/>
    </edge>
    <edge id=":1103668429_14" function="internal">
        <lane id=":1103668429_14_0" index="0" disallow="tram rail_urban rail rail_electric rail_fast ship" speed="7.80" length="4.32" shape="3070.64,3068.79 3072.14,3064.98 3072.30,3064.82"/>
    </edge>
    <edge id=":1103668429_15" function="internal">
        <lane id=":1103668429_15_0" index="0" disallow="tram rail_urban rail rail_electric rail_fast ship" speed="3.65" length="1.44" shape="3070.64,3068.79 3071.69,3067.80"/>
    </edge>
    <edge id=":1103668429_18" function="internal">
        <lane id=":1103668429_18_0" index="0" disallow="tram rail_urban rail rail_electric rail_fast ship" speed="7.80" length="10.36" shape="3072.30,3064.82 3074.47,3062.72 3077.64,3062.02 3081.64,3062.88"/>
    </edge>
    <edge id=":1103668429_19" function="internal">
        <lane id=":1103668429_19_0" index="0" disallow="tram rail_urban rail rail_electric rail_fast ship" speed="3.65" length="3.23" shape="3071.69,3067.80 3072.56,3067.60 3073.25,3068.17 3073.75,3069.52"/>
    </edge>
    <edge id=":1103668431_0" function="internal">
        <lane id=":1103668431_0_0" index="0" disallow="tram rail_urban rail rail_electric rail_fast ship" speed="7.68" length="10.52" shape="2761.24,3035.17 2758.15,3035.76 2755.82,3036.91 2754.25,3038.64 2753.44,3040.94"/>
    </edge>
    <edge id=":1103668431_1" function="internal">
        <lane id=":1103668431_1_0" index="0" disallow="tram rail_urban rail rail_electric rail_fast ship" speed="7.60" length="15.34" shape="2761.24,3035.17 2756.86,3034.93 2754.00,3033.30 2752.67,3030.30 2752.86,3025.92"/>
    </edge>
    <edge id=":1103668431_2" function="internal">
        <lane id=":1103668431_2_0" index="0" disallow="tram rail_urban rail rail_electric rail_fast ship" speed="3.65" length="4.67" shape="2761.24,3035.17 2759.97,3034.48 2759.51,3033.72 2759.84,3032.89 2760.96,3031.99"/>
    </edge>
    <edge id=":1103668431_3" function="internal">
        <lane id=":1103668431_3_0" index="0" disallow="tram rail_urban rail rail_electric rail_fast ship" speed="6.00" length="9.08" shape="2756.00,3026.51 2755.89,3029.10 2756.68,3030.88 2758.37,3031.84 2760.96,3031.99"/>
    </edge>
    <edge id=":1103668431_4" function="internal">
        <lane id=":1103668431_4_0" index="0" disallow="tram rail_urban rail rail_electric rail_fast ship" speed="13.89" length="14.66" shape="2756.00,3026.51 2753.44,3040.94"/>
    </edge>
    <edge id=":1103668431_5" function="internal">
        <lane id=":1103668431_5_0" index="0" disallow="tram rail_urban rail rail_electric rail_fast ship" speed="3.65" length="1.44" shape="2756.00,3026.51 2755.00,3027.54"/>
    </edge>
    <edge id=":1103668431_9" function="internal">
        <lane id=":1103668431_9_0" index="0" disallow="tram rail_urban rail rail_electric rail_fast ship" speed="3.65" length="3.23" shape="2755.00,3027.54 2754.14,3027.79 2753.42,3027.25 2752.86,3025.92"/>
    </edge>
    <edge id=":1103668431_6" function="internal">
        <lane id=":1103668431_6_0" index="0" disallow="tram rail_urban rail rail_electric rail_fast ship" speed="13.89" length="14.73" shape="2750.28,3040.42 2752.86,3025.92"/>
    </edge>
    <edge id=":1103668431_7" function="internal">
        <lane id=":1103668431_7_0" index="0" disallow="tram rail_urban rail rail_electric rail_fast ship" speed="9.01" length="3.80" shape="2750.28,3040.42 2751.42,3037.03 2751.57,3036.86"/>
    </edge>
    <edge id=":1103668431_8" function="internal">
        <lane id=":1103668431_8_0" index="0" disallow="tram rail_urban rail rail_electric rail_fast ship" speed="3.65" length="1.44" shape="2750.28,3040.42 2751.26,3039.37"/>
    </edge>
    <edge id=":1103668431_10" function="internal">
        <lane id=":1103668431_10_0" index="0" disallow="tram rail_urban rail rail_electric rail_fast ship" speed="9.01" length="10.98" shape="2751.57,3036.86 2753.58,3034.50 2756.76,3032.82 2760.96,3031.99"/>
    </edge>
    <edge id=":1103668431_11" function="internal">
        <lane id=":1103668431_11_0" index="0" disallow="tram rail_urban rail rail_electric rail_fast ship" speed="3.65" length="3.23" shape="2751.26,3039.37 2752.12,3039.10 2752.84,3039.63 2753.44,3040.94"/>
    </edge>
    <edge id=":1103668441_0" function="internal">
        <lane id=":1103668441_0_0" index="0" disallow="tram rail_urban rail rail_electric rail_fast ship" speed="5.94" length="9.09" shape="2817.71,2791.22 2815.74,2789.49 2813.88,2789.00 2812.10,2789.76 2810.42,2791.76"/>
    </edge>
    <edge id=":1103668441_1" function="internal">
        <lane id=":1103668441_1_0" index="0" disallow="tram rail_urban rail rail_electric rail_fast ship" speed="9.92" length="14.73" shape="2817.71,2791.22 2815.22,2787.69 2813.85,2784.26 2813.60,2780.91 2814.47,2777.66"/>
    </edge>
    <edge id=":1103668441_2" function="internal">
        <lane id=":1103668441_2_0" index="0" disallow="tram rail_urban rail rail_electric rail_fast ship" speed="3.65" length="4.67" shape="2817.71,2791.22 2817.54,2789.79 2817.88,2788.96 2818.75,2788.75 2820.14,2789.14"/>
    </edge>
    <edge id=":1103668441_3" function="internal">
        <lane id=":1103668441_3_0" index="0" disallow="tram rail_urban rail rail_electric rail_fast ship" speed="8.68" length="11.13" shape="2817.39,2778.96 2816.80,2781.31 2817.06,2783.79 2818.18,2786.40 2820.14,2789.14"/>
    </edge>
    <edge id=":1103668441_4" function="internal">
        <lane id=":1103668441_4_0" index="0" disallow="tram rail_urban rail rail_electric rail_fast ship" speed="13.89" length="14.59" shape="2817.39,2778.96 2815.82,2782.29 2814.14,2785.48 2812.34,2788.61 2810.42,2791.76"/>
    </edge>
    <edge id=":1103668441_5" function="internal">
        <lane id=":1103668441_5_0" index="0" disallow="tram rail_urban rail rail_electric rail_fast ship" speed="3.65" length="1.44" shape="2817.39,2778.96 2816.18,2779.73"/>
    </edge>
    <edge id=":1103668441_9" function="internal">
        <lane id=":1103668441_9_0" index="0" disallow="tram rail_urban rail rail_electric rail_fast ship" speed="3.65" length="3.23" shape="2816.18,2779.73 2815.28,2779.77 2814.71,2779.08 2814.47,2777.66"/>
    </edge>
    <edge id=":1103668441_6" function="internal">