<?xml version="1.0" encoding="UTF-8"?>

<!-- generated on 2022-11-17 16:51:54.610898 by osmWebWizard.py UNKNOWN
<configuration>
    <allow-fringe.min-length value="1000.0"/>
    <end value="3600"/>
    <fringe-factor value="5.0"/>
    <fringe-start-attributes value="departSpeed=&quot;max&quot;"/>
    <lanes value="True"/>
    <min-distance value="300.0"/>
    <net-file value="/home/joao/dir/2022-11-17-16-51-43/osm.net.xml"/>
    <period value="2.172608376404692"/>
    <route-file value="/home/joao/dir/2022-11-17-16-51-43/osm.passenger.rou.xml"/>
    <trip-attributes value="departLane=&quot;best&quot;"/>
    <output-trip-file value="/home/joao/dir/2022-11-17-16-51-43/osm.passenger.trips.xml"/>
    <prefix value="veh"/>
    <validate value="True"/>
    <vehicle-class value="passenger"/>
</configuration>
-->

<!-- generated on 2022-11-17 16:51:54 by Eclipse SUMO duarouter Version 1.14.0
<configuration xmlns:xsi="http://www.w3.org/2001/XMLSchema-instance" xsi:noNamespaceSchemaLocation="http://sumo.dlr.de/xsd/duarouterConfiguration.xsd">

    <input>
        <net-file value="/home/joao/dir/2022-11-17-16-51-43/osm.net.xml"/>
        <route-files value="/home/joao/dir/2022-11-17-16-51-43/osm.passenger.trips.xml"/>
    </input>

    <output>
        <output-file value="/home/joao/dir/2022-11-17-16-51-43/osm.passenger.trips.xml.tmp"/>
        <alternatives-output value="NUL"/>
        <write-trips value="true"/>
    </output>

    <time>
        <begin value="0"/>
        <end value="3600"/>
    </time>

    <report>
        <no-warnings value="true"/>
        <ignore-errors value="true"/>
        <no-step-log value="true"/>
    </report>

</configuration>
-->

<routes xmlns:xsi="http://www.w3.org/2001/XMLSchema-instance" xsi:noNamespaceSchemaLocation="http://sumo.dlr.de/xsd/routes_file.xsd">
    <vType id="veh_passenger" vClass="passenger"/>
    <trip id="veh0" type="veh_passenger" depart="0.00" departLane="best" from="137729334" to="-105885559#0"/>
    <trip id="veh1" type="veh_passenger" depart="2.17" departLane="best" from="-51202154" to="-362102612"/>
    <trip id="veh2" type="veh_passenger" depart="4.35" departLane="best" from="362101723#0" to="205706906#1"/>
    <trip id="veh3" type="veh_passenger" depart="6.52" departLane="best" departSpeed="max" from="52986063" to="-121662236"/>
    <trip id="veh4" type="veh_passenger" depart="8.69" departLane="best" from="105464620#1" to="-107824325#1"/>
    <trip id="veh5" type="veh_passenger" depart="10.86" departLane="best" from="-362103122" to="108487139#2"/>
    <trip id="veh6" type="veh_passenger" depart="13.04" departLane="best" from="-105885528#4" to="-306056612"/>
    <trip id="veh7" type="veh_passenger" depart="15.21" departLane="best" from="152828493" to="121169544#4"/>
    <trip id="veh8" type="veh_passenger" depart="17.38" departLane="best" from="51202070#5" to="-105861361#0"/>
    <trip id="veh9" type="veh_passenger" depart="19.55" departLane="best" from="51202070#1" to="209446998#3"/>
    <trip id="veh10" type="veh_passenger" depart="21.73" departLane="best" from="-540229751" to="-171143135"/>
    <trip id="veh11" type="veh_passenger" depart="23.90" departLane="best" departSpeed="max" from="840849233" to="-52171550#6"/>
    <trip id="veh12" type="veh_passenger" depart="26.07" departLane="best" departSpeed="max" from="-136751798" to="-137729103#0"/>
    <trip id="veh13" type="veh_passenger" depart="28.24" departLane="best" from="51203053#7" to="137729167"/>
    <trip id="veh14" type="veh_passenger" depart="30.42" departLane="best" from="51202070#2" to="360582696"/>
    <trip id="veh15" type="veh_passenger" depart="32.59" departLane="best" departSpeed="max" from="121169579#0" to="95141633#2"/>
    <trip id="veh16" type="veh_passenger" depart="34.76" departLane="best" from="-95141633#0" to="121662114"/>
    <trip id="veh17" type="veh_passenger" depart="36.93" departLane="best" departSpeed="max" from="51202644" to="137729198#2"/>
    <trip id="veh18" type="veh_passenger" depart="39.11" departLane="best" from="51503412#0" to="136751798"/>
    <trip id="veh19" type="veh_passenger" depart="41.28" departLane="best" departSpeed="max" from="306056601#0" to="-108526596#0"/>
    <trip id="veh20" type="veh_passenger" depart="43.45" departLane="best" from="-362103133#0" to="-51202828"/>
    <trip id="veh21" type="veh_passenger" depart="45.62" departLane="best" from="-121662168#1" to="-362103129"/>
    <trip id="veh22" type="veh_passenger" depart="47.80" departLane="best" from="-137729106#2" to="-51202070#7"/>
    <trip id="veh24" type="veh_passenger" depart="52.14" departLane="best" from="-81152478" to="-362101471#1"/>
    <trip id="veh25" type="veh_passenger" depart="54.32" departLane="best" from="-50885124#7" to="736768978#5"/>
    <trip id="veh26" type="veh_passenger" depart="56.49" departLane="best" departSpeed="max" from="-209439854" to="360582696"/>
    <trip id="veh27" type="veh_passenger" depart="58.66" departLane="best" from="-171143135" to="-736768977#0"/>
    <trip id="veh29" type="veh_passenger" depart="63.01" departLane="best" departSpeed="max" from="121662236" to="209439854"/>
    <trip id="veh30" type="veh_passenger" depart="65.18" departLane="best" from="51203053#1" to="362753646"/>
    <trip id="veh31" type="veh_passenger" depart="67.35" departLane="best" departSpeed="max" from="-362103133#2" to="-107833668#0"/>
    <trip id="veh32" type="veh_passenger" depart="69.52" departLane="best" from="-52986096#2" to="-50885124#1"/>
    <trip id="veh33" type="veh_passenger" depart="71.70" departLane="best" from="-362101859" to="81152479"/>
    <trip id="veh34" type="veh_passenger" depart="73.87" departLane="best" from="51503439#0" to="-51503414#0"/>
    <trip id="veh35" type="veh_passenger" depart="76.04" departLane="best" from="171143135" to="-840849233"/>
    <trip id="veh36" type="veh_passenger" depart="78.21" departLane="best" from="547492323" to="105885526"/>
    <trip id="veh37" type="veh_passenger" depart="80.39" departLane="best" from="-50885124#4" to="-362753657"/>
    <trip id="veh38" type="veh_passenger" depart="82.56" departLane="best" from="121921782#0" to="-362758252"/>
    <trip id="veh39" type="veh_passenger" depart="84.73" departLane="best" departSpeed="max" from="137729111#0" to="540229708#4"/>
    <trip id="veh40" type="veh_passenger" depart="86.90" departLane="best" from="-95161509#4" to="-362102052"/>
    <trip id="veh41" type="veh_passenger" depart="89.08" departLane="best" from="95166000#0" to="108487142"/>
    <trip id="veh42" type="veh_passenger" depart="91.25" departLane="best" from="-136734849" to="-108526597"/>
    <trip id="veh43" type="veh_passenger" depart="93.42" departLane="best" from="-137729142#0" to="137729208#1"/>
    <trip id="veh44" type="veh_passenger" depart="95.59" departLane="best" from="384435708" to="1041474739#1"/>
    <trip id="veh45" type="veh_passenger" depart="97.77" departLane="best" from="-121169544#3" to="-736768978#0"/>
    <trip id="veh46" type="veh_passenger" depart="99.94" departLane="best" from="95161515#1" to="1111186752#0"/>
    <trip id="veh47" type="veh_passenger" depart="102.11" departLane="best" from="95141631#2" to="51503414#1"/>
    <trip id="veh48" type="veh_passenger" depart="104.29" departLane="best" departSpeed="max" from="209446996" to="1111186756"/>
    <trip id="veh50" type="veh_passenger" depart="108.63" departLane="best" from="-137729142#2" to="104690506"/>
    <trip id="veh51" type="veh_passenger" depart="110.80" departLane="best" from="105885547" to="95141631#1"/>
    <trip id="veh52" type="veh_passenger" depart="112.98" departLane="best" from="51503439#0" to="-362758252"/>
    <trip id="veh53" type="veh_passenger" depart="115.15" departLane="best" from="108526600" to="-209446998#0"/>
    <trip id="veh54" type="veh_passenger" depart="117.32" departLane="best" from="540229758" to="52171550#4"/>
    <trip id="veh57" type="veh_passenger" depart="123.84" departLane="best" from="362103133#2" to="121169535#0"/>
    <trip id="veh58" type="veh_passenger" depart="126.01" departLane="best" from="362754063" to="1111186753"/>
    <trip id="veh59" type="veh_passenger" depart="128.18" departLane="best" from="-1022579542#0" to="-51503438"/>
    <trip id="veh60" type="veh_passenger" depart="130.36" departLane="best" from="-105885528#0" to="696015265#2"/>
    <trip id="veh61" type="veh_passenger" depart="132.53" departLane="best" from="51503445" to="51202432#0"/>
    <trip id="veh62" type="veh_passenger" depart="134.70" departLane="best" from="51503439#1" to="95141099#0"/>
    <trip id="veh63" type="veh_passenger" depart="136.87" departLane="best" from="-121662238" to="105885559#1"/>
    <trip id="veh64" type="veh_passenger" depart="139.05" departLane="best" from="-121169582" to="362103129"/>
    <trip id="veh65" type="veh_passenger" depart="141.22" departLane="best" from="362103712" to="-137729208#0"/>
    <trip id="veh66" type="veh_passenger" depart="143.39" departLane="best" from="107833666#1" to="121169551"/>
    <trip id="veh67" type="veh_passenger" depart="145.56" departLane="best" from="-50885124#4" to="52171550#7"/>
    <trip id="veh68" type="veh_passenger" depart="147.74" departLane="best" from="105464620#3" to="-362101721#1"/>
    <trip id="veh69" type="veh_passenger" depart="149.91" departLane="best" departSpeed="max" from="121169579#0" to="360582696"/>
    <trip id="veh70" type="veh_passenger" depart="152.08" departLane="best" from="-362101471#1" to="-51503412#0"/>
    <trip id="veh71" type="veh_passenger" depart="154.26" departLane="best" from="95161509#4" to="137729315#1"/>
    <trip id="veh72" type="veh_passenger" depart="156.43" departLane="best" departSpeed="max" from="105885524" to="1103858919#1"/>
    <trip id="veh73" type="veh_passenger" depart="158.60" departLane="best" from="-137729197#1" to="-362103120"/>
    <trip id="veh74" type="veh_passenger" depart="160.77" departLane="best" departSpeed="max" from="-540229715" to="137729137"/>
    <trip id="veh75" type="veh_passenger" depart="162.95" departLane="best" departSpeed="max" from="-362103133#2" to="-362102053"/>
    <trip id="veh76" type="veh_passenger" depart="165.12" departLane="best" from="-121662124#0" to="137729208#4"/>
    <trip id="veh77" type="veh_passenger" depart="167.29" departLane="best" departSpeed="max" from="-362103133#2" to="540229758"/>
    <trip id="veh78" type="veh_passenger" depart="169.46" departLane="best" departSpeed="max" from="51503411" to="-121662124#0"/>
    <trip id="veh79" type="veh_passenger" depart="171.64" departLane="best" departSpeed="max" from="-362753644" to="171142738"/>
    <trip id="veh80" type="veh_passenger" depart="173.81" departLane="best" from="-362102189" to="-137729208#1"/>
    <trip id="veh81" type="veh_passenger" depart="175.98" departLane="best" departSpeed="max" from="68663946#0" to="121921782#1"/>
    <trip id="veh82" type="veh_passenger" depart="178.15" departLane="best" from="107824325#0" to="362754056"/>
    <trip id="veh83" type="veh_passenger" depart="180.33" departLane="best" from="51202070#3" to="-306056601#0"/>
    <trip id="veh84" type="veh_passenger" depart="182.50" departLane="best" from="-137729103#3" to="104690502#1"/>
    <trip id="veh85" type="veh_passenger" depart="184.67" departLane="best" from="95141635" to="-137729104#1"/>
    <trip id="veh86" type="veh_passenger" depart="186.84" departLane="best" from="-95166000#1" to="-52986063"/>
    <trip id="veh87" type="veh_passenger" depart="189.02" departLane="best" from="51503412#0" to="-362754053#1"/>
    <trip id="veh88" type="veh_passenger" depart="191.19" departLane="best" from="-306056601#1" to="105861357"/>
    <trip id="veh89" type="veh_passenger" depart="193.36" departLane="best" from="105464620#1" to="-51202070#7"/>
    <trip id="veh90" type="veh_passenger" depart="195.53" departLane="best" from="-362754056" to="68663921#3"/>
    <trip id="veh91" type="veh_passenger" depart="197.71" departLane="best" from="105885528#1" to="51503439#0"/>
    <trip id="veh92" type="veh_passenger" depart="199.88" departLane="best" from="121662168#0" to="-1103858919#1"/>
    <trip id="veh93" type="veh_passenger" depart="202.05" departLane="best" from="952053659" to="51202841#2"/>
    <trip id="veh94" type="veh_passenger" depart="204.23" departLane="best" from="95141631#1" to="68663946#1"/>
    <trip id="veh95" type="veh_passenger" depart="206.40" departLane="best" from="51203068#1" to="-205706909"/>
    <trip id="veh96" type="veh_passenger" depart="208.57" departLane="best" departSpeed="max" from="107833669" to="-362101723#0"/>
    <trip id="veh97" type="veh_passenger" depart="210.74" departLane="best" from="-95161515#1" to="-121169535#3"/>
    <trip id="veh98" type="veh_passenger" depart="212.92" departLane="best" from="-95141633#1" to="95161504"/>
    <trip id="veh99" type="veh_passenger" depart="215.09" departLane="best" from="-50885124#5" to="362754053#1"/>
    <trip id="veh100" type="veh_passenger" depart="217.26" departLane="best" from="105885550#1" to="1041474739#1"/>
    <trip id="veh101" type="veh_passenger" depart="219.43" departLane="best" departSpeed="max" from="840849233" to="95166000#2"/>
    <trip id="veh102" type="veh_passenger" depart="221.61" departLane="best" from="121662234" to="307820912#5"/>
    <trip id="veh103" type="veh_passenger" depart="223.78" departLane="best" from="-137729417#1" to="-51202967#0"/>
    <trip id="veh104" type="veh_passenger" depart="225.95" departLane="best" from="95141631#1" to="137612527"/>
    <trip id="veh105" type="veh_passenger" depart="228.12" departLane="best" from="-1103858919#3" to="137729106#3"/>
    <trip id="veh106" type="veh_passenger" depart="230.30" departLane="best" from="-137729443#1" to="95141631#5"/>
    <trip id="veh107" type="veh_passenger" depart="232.47" departLane="best" from="-121662168#1" to="-209447004"/>
    <trip id="veh108" type="veh_passenger" depart="234.64" departLane="best" from="137729155#0" to="205706905"/>
    <trip id="veh109" type="veh_passenger" depart="236.81" departLane="best" departSpeed="max" from="-362753644" to="-137729155#0"/>
    <trip id="veh110" type="veh_passenger" depart="238.99" departLane="best" from="52171550#6" to="-362753657"/>
    <trip id="veh111" type="veh_passenger" depart="241.16" departLane="best" from="137729155#0" to="137729198#3"/>
    <trip id="veh112" type="veh_passenger" depart="243.33" departLane="best" from="105464615" to="137729106#2"/>
    <trip id="veh113" type="veh_passenger" depart="245.50" departLane="best" from="1111186756" to="736768978#1"/>
    <trip id="veh114" type="veh_passenger" depart="247.68" departLane="best" from="-362101722#0" to="307820912#2"/>
    <trip id="veh115" type="veh_passenger" depart="249.85" departLane="best" departSpeed="max" from="-362753644" to="-840849233"/>
    <trip id="veh116" type="veh_passenger" depart="252.02" departLane="best" from="209439851" to="-51203069#0"/>
    <trip id="veh117" type="veh_passenger" depart="254.20" departLane="best" departSpeed="max" from="-52986096#3" to="362103119#3"/>
    <trip id="veh118" type="veh_passenger" depart="256.37" departLane="best" from="-121662124#2" to="105885526"/>
    <trip id="veh119" type="veh_passenger" depart="258.54" departLane="best" from="95166000#2" to="95166000#2"/>
    <trip id="veh120" type="veh_passenger" depart="260.71" departLane="best" from="-121662124#3" to="-362101722#1"/>
    <trip id="veh121" type="veh_passenger" depart="262.89" departLane="best" from="-50885124#5" to="736768977#1"/>
    <trip id="veh122" type="veh_passenger" depart="265.06" departLane="best" from="52171548#1" to="52986096#2"/>
    <trip id="veh123" type="veh_passenger" depart="267.23" departLane="best" from="-749618914#1" to="-203342432#0"/>
    <trip id="veh124" type="veh_passenger" depart="269.40" departLane="best" departSpeed="max" from="51202828" to="209447004"/>
    <trip id="veh126" type="veh_passenger" depart="273.75" departLane="best" from="171143107" to="-105885524"/>
    <trip id="veh127" type="veh_passenger" depart="275.92" departLane="best" from="51202343#5" to="-51203069#0"/>
    <trip id="veh128" type="veh_passenger" depart="278.09" departLane="best" departSpeed="max" from="205706907" to="736768979#1"/>
    <trip id="veh130" type="veh_passenger" depart="282.44" departLane="best" from="-51202070#6" to="137729182"/>
    <trip id="veh132" type="veh_passenger" depart="286.78" departLane="best" from="107833672#1" to="540229758"/>
    <trip id="veh133" type="veh_passenger" depart="288.96" departLane="best" from="51203053#6" to="-136734931"/>
    <trip id="veh134" type="veh_passenger" depart="291.13" departLane="best" from="105464620#3" to="-51202070#5"/>
    <trip id="veh135" type="veh_passenger" depart="293.30" departLane="best" departSpeed="max" from="-1041474739#1" to="362103712"/>
    <trip id="veh136" type="veh_passenger" depart="295.47" departLane="best" from="137729325#0" to="-362758252"/>
    <trip id="veh137" type="veh_passenger" depart="297.65" departLane="best" from="362101859" to="121662114"/>
    <trip id="veh138" type="veh_passenger" depart="299.82" departLane="best" from="105861357" to="-105885524"/>
    <trip id="veh139" type="veh_passenger" depart="301.99" departLane="best" from="-121662127#1" to="52986096#3"/>
    <trip id="veh140" type="veh_passenger" depart="304.17" departLane="best" from="52986097#2" to="121169544#5"/>
    <trip id="veh141" type="veh_passenger" depart="306.34" departLane="best" departSpeed="max" from="51202828" to="137729104#2"/>
    <trip id="veh142" type="veh_passenger" depart="308.51" departLane="best" departSpeed="max" from="-137729326" to="-137729197#6"/>
    <trip id="veh143" type="veh_passenger" depart="310.68" departLane="best" from="-52171550#6" to="540229708#4"/>
    <trip id="veh144" type="veh_passenger" depart="312.86" departLane="best" from="50885124#2" to="51503414#1"/>
    <trip id="veh145" type="veh_passenger" depart="315.03" departLane="best" departSpeed="max" from="52986097#0" to="-362101720"/>
    <trip id="veh146" type="veh_passenger" depart="317.20" departLane="best" from="-362754056" to="-137729106#0"/>
    <trip id="veh147" type="veh_passenger" depart="319.37" departLane="best" from="362754065" to="52986097#2"/>
    <trip id="veh148" type="veh_passenger" depart="321.55" departLane="best" departSpeed="max" from="-95166000#2" to="137729198#3"/>
    <trip id="veh149" type="veh_passenger" depart="323.72" departLane="best" from="-137729417#0" to="696015266"/>
    <trip id="veh150" type="veh_passenger" depart="325.89" departLane="best" departSpeed="max" from="51503414#0" to="95141634"/>
    <trip id="veh151" type="veh_passenger" depart="328.06" departLane="best" from="51202070#7" to="52986096#3"/>
    <trip id="veh152" type="veh_passenger" depart="330.24" departLane="best" from="-105885528#3" to="362101722#0"/>
    <trip id="veh153" type="veh_passenger" depart="332.41" departLane="best" departSpeed="max" from="-540229708#5" to="696015267"/>
    <trip id="veh154" type="veh_passenger" depart="334.58" departLane="best" from="51201550#0" to="51503439#1"/>
    <trip id="veh155" type="veh_passenger" depart="336.75" departLane="best" from="51202070#7" to="-422954289"/>
    <trip id="veh156" type="veh_passenger" depart="338.93" departLane="best" departSpeed="max" from="362758252" to="-137729108#0"/>
    <trip id="veh157" type="veh_passenger" depart="341.10" departLane="best" departSpeed="max" from="51503438" to="51203130#5"/>
    <trip id="veh158" type="veh_passenger" depart="343.27" departLane="best" from="-362103127#0" to="51202070#7"/>
    <trip id="veh159" type="veh_passenger" depart="345.44" departLane="best" from="105885554" to="-51203130#3"/>
    <trip id="veh160" type="veh_passenger" depart="347.62" departLane="best" from="50885124#1" to="-362103123"/>
    <trip id="veh161" type="veh_passenger" depart="349.79" departLane="best" from="-105885528#2" to="-306056601#0"/>
    <trip id="veh162" type="veh_passenger" depart="351.96" departLane="best" departSpeed="max" from="-540229708#5" to="51503445"/>
    <trip id="veh163" type="veh_passenger" depart="354.14" departLane="best" from="95141103#1" to="-51202070#8"/>
    <trip id="veh164" type="veh_passenger" depart="356.31" departLane="best" from="137729358" to="-95141101"/>
    <trip id="veh165" type="veh_passenger" depart="358.48" departLane="best" from="95141633#1" to="1111186756"/>
    <trip id="veh166" type="veh_passenger" depart="360.65" departLane="best" from="696015265#1" to="-137729111#1"/>
    <trip id="veh167" type="veh_passenger" depart="362.83" departLane="best" from="95141631#2" to="-209446996"/>
    <trip id="veh168" type="veh_passenger" depart="365.00" departLane="best" from="95141099#0" to="-384435726#0"/>
    <trip id="veh169" type="veh_passenger" depart="367.17" departLane="best" departSpeed="max" from="-137729137" to="104690506"/>
    <trip id="veh170" type="veh_passenger" depart="369.34" departLane="best" from="359890083" to="-51503414#0"/>
    <trip id="veh171" type="veh_passenger" depart="371.52" departLane="best" from="137729198#0" to="108487142"/>
    <trip id="veh172" type="veh_passenger" depart="373.69" departLane="best" departSpeed="max" from="-95141633#2" to="136751798"/>
    <trip id="veh173" type="veh_passenger" depart="375.86" departLane="best" from="-362754065" to="209788848"/>
    <trip id="veh174" type="veh_passenger" depart="378.03" departLane="best" from="-1041474739#0" to="68663924"/>
    <trip id="veh175" type="veh_passenger" depart="380.21" departLane="best" departSpeed="max" from="121169579#0" to="307820912#6"/>
    <trip id="veh176" type="veh_passenger" depart="382.38" departLane="best" from="362102052" to="171142742#2"/>
    <trip id="veh177" type="veh_passenger" depart="384.55" departLane="best" from="-736768978#6" to="-121662114"/>
    <trip id="veh178" type="veh_passenger" depart="386.72" departLane="best" departSpeed="max" from="205706907" to="-52171550#0"/>
    <trip id="veh179" type="veh_passenger" depart="388.90" departLane="best" from="-52986096#0" to="51203053#6"/>
    <trip id="veh180" type="veh_passenger" depart="391.07" departLane="best" from="307820912#4" to="-51203069#1"/>
    <trip id="veh181" type="veh_passenger" depart="393.24" departLane="best" departSpeed="max" from="-52171550#7" to="-95161506#0"/>
    <trip id="veh182" type="veh_passenger" depart="395.41" departLane="best" from="-95166000#1" to="-51202959#2"/>
    <trip id="veh183" type="veh_passenger" depart="397.59" departLane="best" departSpeed="max" from="-137729208#4" to="1037981905"/>
    <trip id="veh184" type="veh_passenger" depart="399.76" departLane="best" from="696015265#2" to="205706908"/>
    <trip id="veh185" type="veh_passenger" depart="401.93" departLane="best" from="52986097#1" to="137729198#1"/>
    <trip id="veh186" type="veh_passenger" depart="404.11" departLane="best" from="-51503445" to="121169551"/>
    <trip id="veh187" type="veh_passenger" depart="406.28" departLane="best" from="-1022579542#0" to="-51202644"/>
    <trip id="veh188" type="veh_passenger" depart="408.45" departLane="best" from="105861361#0" to="137729103#0"/>
    <trip id="veh189" type="veh_passenger" depart="410.62" departLane="best" from="171143107" to="105885528#3"/>
    <trip id="veh190" type="veh_passenger" depart="412.80" departLane="best" from="105885528#0" to="-362101723#0"/>
    <trip id="veh191" type="veh_passenger" depart="414.97" departLane="best" from="107824325#1" to="540229715"/>
    <trip id="veh192" type="veh_passenger" depart="417.14" departLane="best" from="50885124#1" to="-209439852"/>
    <trip id="veh193" type="veh_passenger" depart="419.31" departLane="best" from="-121662234" to="1103858919#0"/>
    <trip id="veh195" type="veh_passenger" depart="423.66" departLane="best" from="51202344#0" to="362103119#2"/>
    <trip id="veh196" type="veh_passenger" depart="425.83" departLane="best" from="209439852" to="-362103120"/>
    <trip id="veh197" type="veh_passenger" depart="428.00" departLane="best" from="-362101469" to="-105885559#0"/>
    <trip id="veh198" type="veh_passenger" depart="430.18" departLane="best" from="-362753654" to="105885553#1"/>
    <trip id="veh199" type="veh_passenger" depart="432.35" departLane="best" from="51203069#0" to="-121662124#2"/>
    <trip id="veh200" type="veh_passenger" depart="434.52" departLane="best" from="104690503" to="137729208#4"/>
    <trip id="veh201" type="veh_passenger" depart="436.69" departLane="best" from="-307820912#2" to="209446998#1"/>
    <trip id="veh202" type="veh_passenger" depart="438.87" departLane="best" from="108487139#0" to="-362753652"/>
    <trip id="veh203" type="veh_passenger" depart="441.04" departLane="best" departSpeed="max" from="203342432#0" to="-104690505"/>
    <trip id="veh204" type="veh_passenger" depart="443.21" departLane="best" from="362103121" to="362103306"/>
    <trip id="veh205" type="veh_passenger" depart="445.38" departLane="best" departSpeed="max" from="-137729137" to="1041474739#1"/>
    <trip id="veh206" type="veh_passenger" depart="447.56" departLane="best" from="-209439858" to="95141631#4"/>
    <trip id="veh207" type="veh_passenger" depart="449.73" departLane="best" from="1111186755" to="-1103858919#1"/>
    <trip id="veh208" type="veh_passenger" depart="451.90" departLane="best" from="-362754056" to="51203053#6"/>
    <trip id="veh209" type="veh_passenger" depart="454.08" departLane="best" from="105885553#1" to="50885124#1"/>
    <trip id="veh210" type="veh_passenger" depart="456.25" departLane="best" from="205706909" to="95161506#1"/>
    <trip id="veh211" type="veh_passenger" depart="458.42" departLane="best" from="137729155#1" to="95141101"/>
    <trip id="veh212" type="veh_passenger" depart="460.59" departLane="best" departSpeed="max" from="52986063" to="137729198#0"/>
    <trip id="veh213" type="veh_passenger" depart="462.77" departLane="best" from="307820912#4" to="108487139#2"/>
    <trip id="veh214" type="veh_passenger" depart="464.94" departLane="best" departSpeed="max" from="51202644" to="121169551"/>
    <trip id="veh215" type="veh_passenger" depart="467.11" departLane="best" from="52986096#2" to="362102052"/>
    <trip id="veh216" type="veh_passenger" depart="469.28" departLane="best" from="107833666#1" to="-362758250"/>
    <trip id="veh217" type="veh_passenger" depart="471.46" departLane="best" from="-362754053#0" to="137729259#1"/>
    <trip id="veh218" type="veh_passenger" depart="473.63" departLane="best" from="362103712" to="1103858919#3"/>
    <trip id="veh219" type="veh_passenger" depart="475.80" departLane="best" departSpeed="max" from="137729217#0" to="-51202070#2"/>
    <trip id="veh220" type="veh_passenger" depart="477.97" departLane="best" from="-121662164#0" to="-51202644"/>
    <trip id="veh222" type="veh_passenger" depart="482.32" departLane="best" departSpeed="max" from="-362103133#2" to="209446992#0"/>
    <trip id="veh223" type="veh_passenger" depart="484.49" departLane="best" departSpeed="max" from="306056601#0" to="-121169544#3"/>
    <trip id="veh224" type="veh_passenger" depart="486.66" departLane="best" from="1022579542#0" to="121169542#1"/>
    <trip id="veh225" type="veh_passenger" depart="488.84" departLane="best" from="104690505" to="-362101469"/>
    <trip id="veh226" type="veh_passenger" depart="491.01" departLane="best" from="105464616" to="540229758"/>
    <trip id="veh227" type="veh_passenger" depart="493.18" departLane="best" departSpeed="max" from="137729111#0" to="209446998#0"/>
    <trip id="veh228" type="veh_passenger" depart="495.35" departLane="best" from="51203130#5" to="362103133#2"/>
    <trip id="veh229" type="veh_passenger" depart="497.53" departLane="best" departSpeed="max" from="-95141633#2" to="-105464615"/>
    <trip id="veh230" type="veh_passenger" depart="499.70" departLane="best" from="-68663913#4" to="362103121"/>
    <trip id="veh231" type="veh_passenger" depart="501.87" departLane="best" from="51203130#1" to="95141631#1"/>
    <trip id="veh232" type="veh_passenger" depart="504.05" departLane="best" from="104691254" to="362102190"/>
    <trip id="veh233" type="veh_passenger" depart="506.22" departLane="best" from="121662127#1" to="137729167"/>
    <trip id="veh234" type="veh_passenger" depart="508.39" departLane="best" departSpeed="max" from="105885524" to="-107824325#0"/>
    <trip id="veh235" type="veh_passenger" depart="510.56" departLane="best" departSpeed="max" from="-540229715" to="205706910"/>
    <trip id="veh236" type="veh_passenger" depart="512.74" departLane="best" departSpeed="max" from="-95166000#2" to="-205706907"/>
    <trip id="veh237" type="veh_passenger" depart="514.91" departLane="best" from="105885557#4" to="-137729197#6"/>
    <trip id="veh238" type="veh_passenger" depart="517.08" departLane="best" departSpeed="max" from="137729217#0" to="-105885559#0"/>
    <trip id="veh239" type="veh_passenger" depart="519.25" departLane="best" departSpeed="max" from="-95161504" to="121662215"/>
    <trip id="veh240" type="veh_passenger" depart="521.43" departLane="best" from="-105885534" to="137729308"/>
    <trip id="veh242" type="veh_passenger" depart="525.77" departLane="best" from="-108526596#1" to="-696015268"/>
    <trip id="veh243" type="veh_passenger" depart="527.94" departLane="best" from="362103133#0" to="-696015268"/>
    <trip id="veh244" type="veh_passenger" depart="530.12" departLane="best" from="362103122" to="51202432#1"/>
    <trip id="veh245" type="veh_passenger" depart="532.29" departLane="best" from="-362754063" to="-121662209"/>
    <trip id="veh246" type="veh_passenger" depart="534.46" departLane="best" from="-105885528#0" to="121169535#0"/>
    <trip id="veh247" type="veh_passenger" depart="536.63" departLane="best" from="952053659" to="-52986097#1"/>
    <trip id="veh248" type="veh_passenger" depart="538.81" departLane="best" from="171142738" to="362753654"/>
    <trip id="veh249" type="veh_passenger" depart="540.98" departLane="best" from="171142742#2" to="362103122"/>