<?xml version="1.0" encoding="UTF-8"?>

<!-- generated on 2022-11-17 16:51:52 by Eclipse SUMO polyconvert Version 1.14.0
<configuration xmlns:xsi="http://www.w3.org/2001/XMLSchema-instance" xsi:noNamespaceSchemaLocation="http://sumo.dlr.de/xsd/polyconvertConfiguration.xsd">

    <input>
        <net-file value="osm.net.xml"/>
        <osm-files value="osm_bbox.osm.xml.gz"/>
        <osm.keep-full-type value="true"/>
        <type-file value="/usr/share/sumo/data/typemap/osmPolyconvert.typ.xml"/>
    </input>

    <output>
        <output-file value="osm.poly.xml"/>
    </output>

    <report>
        <verbose value="true"/>
    </report>

</configuration>
-->

<additional xmlns:xsi="http://www.w3.org/2001/XMLSchema-instance" xsi:noNamespaceSchemaLocation="http://sumo.dlr.de/xsd/additional_file.xsd">
    <location netOffset="955150.26,-5058917.69" convBoundary="-783.25,-5732.35,10817.76,6276.77" origBoundary="-8.587297,41.276325,-8.483083,41.357350" projParameter="+proj=merc +a=6378137 +b=6378137 +lat_ts=0.0 +lon_0=0.0 +x_0=0.0 +y_0=0 +k=1.0 +units=m +nadgrids=@null +wktext +no_defs"/>

    <poly id="1037981886" type="building.apartments" color="255,230,230" fill="1" layer="-1.00" shape="2348.804730,3445.634837 2369.343176,3437.050399 2347.903043,3382.415598 2345.175715,3375.447274 2323.858033,3383.245867 2326.897055,3390.836899 2348.804730,3445.634837"/>
    <poly id="1037981887" type="building.apartments" color="255,230,230" fill="1" layer="-1.00" shape="2349.595099,3367.648687 2400.011696,3377.522944 2400.490370,3374.972835 2404.431080,3353.875153 2353.747316,3344.000920 2349.595099,3367.648687"/>
    <poly id="1037981888" type="building.apartments" color="255,230,230" fill="1" layer="-1.00" shape="2400.490370,3374.972835 2408.672353,3376.781633 2419.325628,3379.153829 2421.830316,3379.717225 2435.366766,3382.726949 2437.437309,3373.668128 2440.309352,3361.154812 2425.971401,3358.248878 2404.431080,3353.875153 2400.490370,3374.972835"/>
    <poly id="1037981889" type="building.yes" color="255,230,230" fill="1" layer="-1.00" shape="2397.417952,3446.153758 2369.866378,3441.468641 2369.343176,3437.050399 2347.903043,3382.415598 2345.175715,3375.447274 2349.595099,3367.648687 2400.011696,3377.522944 2400.490370,3374.972835 2408.672353,3376.781633 2404.954282,3396.500524 2415.351522,3397.538361 2419.325628,3379.153829 2421.830316,3379.717225 2435.366766,3382.726949 2434.988280,3384.802621 2433.808294,3391.296512 2441.088588,3392.349175 2442.001408,3396.797049 2445.385521,3413.194894 2445.730611,3414.885090 2448.992272,3430.734393 2449.927356,3435.226763 2402.193558,3426.419940 2399.232460,3425.871367 2397.417952,3446.153758"/>
    <poly id="1037981889#1" type="shop.mall" color="237,199,255" fill="1" layer="-1.00" shape="2397.417952,3446.153758 2369.866378,3441.468641 2369.343176,3437.050399 2347.903043,3382.415598 2345.175715,3375.447274 2349.595099,3367.648687 2400.011696,3377.522944 2400.490370,3374.972835 2408.672353,3376.781633 2404.954282,3396.500524 2415.351522,3397.538361 2419.325628,3379.153829 2421.830316,3379.717225 2435.366766,3382.726949 2434.988280,3384.802621 2433.808294,3391.296512 2441.088588,3392.349175 2442.001408,3396.797049 2445.385521,3413.194894 2445.730611,3414.885090 2448.992272,3430.734393 2449.927356,3435.226763 2402.193558,3426.419940 2399.232460,3425.871367 2397.417952,3446.153758"/>
    <poly id="1037981892" type="building.yes" color="255,230,230" fill="1" layer="-1.00" shape="2450.884703,3386.685552 2445.452312,3362.251950 2447.734362,3362.667084 2469.207892,3366.551548 2479.504945,3391.711647 2453.945989,3387.234123 2450.884703,3386.685552"/>
    <poly id="1037981894" type="building.apartments" color="255,230,230" fill="1" layer="-1.00" shape="2541.676880,3437.391404 2422.631817,3439.200214 2421.585413,3448.303575 2415.351522,3447.265732 2403.395809,3446.998859 2397.673987,3449.608292 2396.115514,3469.090110 2402.349405,3469.090110 2402.616572,3471.432675 2425.225561,3470.142781 2425.225561,3464.671855 2483.701689,3464.553245 2515.806230,3464.493939 2548.957175,3464.419807 2549.469245,3452.973870 2541.676880,3454.026540 2541.676880,3437.391404"/>
    <poly id="1037981895" type="building.yes" color="255,230,230" fill="1" layer="-1.00" shape="2434.988280,3384.802621 2438.895594,3383.809263 2437.437309,3373.668128 2440.309352,3361.154812 2445.452312,3362.251950 2450.884703,3386.685552 2454.279948,3393.653885 2442.001408,3396.797049 2441.088588,3392.349175 2433.808294,3391.296512 2434.988280,3384.802621"/>
    <poly id="1037981896" type="building.yes" color="255,230,230" fill="1" layer="-1.00" shape="2451.018287,3437.376578 2464.298702,3434.099963 2463.408146,3426.775771 2448.992272,3430.734393 2449.927356,3435.226763 2451.018287,3437.376578"/>
    <poly id="1037981897" type="building.yes" color="255,230,230" fill="1" layer="-1.00" shape="2463.408146,3426.775771 2459.667811,3409.770025 2445.385521,3413.194894 2445.730611,3414.885090 2448.992272,3430.734393 2463.408146,3426.775771"/>
    <poly id="1037981898" type="building.yes" color="255,230,230" fill="1" layer="-1.00" shape="2459.667811,3409.770025 2454.279948,3393.653885 2442.001408,3396.797049 2445.385521,3413.194894 2459.667811,3409.770025"/>
    <poly id="1041471868" type="building.yes" color="255,230,230" fill="1" layer="-1.00" shape="2222.434844,2807.664362 2242.238582,2791.445449 2189.328428,2726.896223 2169.546954,2743.100203 2222.434844,2807.664362"/>
    <poly id="104690499" type="building.apartments" color="255,230,230" fill="1" layer="-1.00" shape="1961.991764,3025.391827 1994.831014,3080.914154 2011.551201,3071.069851 1978.411389,3016.718809 1961.991764,3025.391827"/>
    <poly id="104690510" type="building.apartments" color="255,230,230" fill="1" layer="-1.00" shape="1999.016626,3002.693739 2036.342052,3064.205532 2053.062239,3055.235964 2014.245133,2992.834691 1999.016626,3002.693739"/>
    <poly id="104690511" type="building.apartments" color="255,230,230" fill="1" layer="-1.00" shape="2035.028482,2978.957912 2077.574791,3047.482114 2091.690103,3038.705296 2049.143793,2970.181157 2035.028482,2978.957912"/>
    <poly id="105153649" type="building.apartments" color="255,230,230" fill="1" layer="-1.00" shape="1993.651027,3136.451625 2007.988977,3121.522007 2049.188321,3181.240620 2002.612246,3212.894007 1993.651027,3193.175492 2018.141315,3175.858813 1993.651027,3136.451625"/>
    <poly id="105464617" type="leisure.stadium" color="207,245,201" fill="1" layer="-2.00" shape="1680.442508,2703.264850 1716.365307,2729.713015 1771.279212,2771.416463 1784.481704,2760.312328 1793.799145,2757.021118 1834.786982,2664.126443 1844.861396,2606.916458 1841.299172,2601.861122 1746.321382,2564.665197 1680.442508,2703.264850"/>
    <poly id="106775319" type="landuse.cemetery" color="194,194,130" fill="1" layer="-3.00" shape="2505.820872,3632.685552 2609.615165,3665.407938 2659.263658,3566.129124 2612.999278,3546.943640 2604.906351,3519.603650 2611.162506,3519.173684 2609.192151,3498.950445 2568.616197,3504.451043 2565.465855,3477.452180 2553.042600,3476.859126 2557.706887,3530.234212 2520.492781,3539.041130 2526.125547,3568.382753 2505.820872,3632.685552"/>
    <poly id="106775320" type="building.apartments" color="255,230,230" fill="1" layer="-1.00" shape="2086.469218,2937.031185 2150.043780,3040.855022 2109.512353,3063.849714 2105.182025,3037.860231 2116.013411,3030.640119 2067.800940,2947.898315 2086.469218,2937.031185"/>
    <poly id="108487143" type="amenity.cafe" color="237,199,199" fill="1" layer="-1.00" shape="2657.326699,3332.377212 2676.540443,3345.557668 2684.232620,3335.253485 2664.462278,3320.842474 2657.326699,3332.377212"/>
    <poly id="108487144" type="shop.clothes" color="237,199,255" fill="1" layer="-1.00" shape="2710.604207,3340.917078 2799.403765,3407.397823 2816.123953,3368.360345 2739.781046,3310.241795 2710.604207,3340.917078"/>
    <poly id="108525414" type="leisure.playground" color="207,245,201" fill="1" layer="-2.00" shape="1452.560378,2302.415011 1516.535689,2309.708702 1522.602602,2408.500209 1439.602789,2387.048846 1452.560378,2302.415011"/>
    <poly id="121169575" type="amenity.marketplace" color="237,199,199" fill="1" layer="-1.00" shape="1392.113895,3836.835320 1418.173787,3662.368473 1583.939641,3686.728701 1538.922039,3798.581930 1538.532421,3809.227626 1547.259869,3853.545278 1545.656868,3857.637518 1541.749554,3858.734712 1392.113895,3836.835320"/>
    <poly id="121169575#1" type="landuse.commercial" color="209,209,204" fill="1" layer="-3.00" shape="1392.113895,3836.835320 1418.173787,3662.368473 1583.939641,3686.728701 1538.922039,3798.581930 1538.532421,3809.227626 1547.259869,3853.545278 1545.656868,3857.637518 1541.749554,3858.734712 1392.113895,3836.835320"/>
    <poly id="152828488" type="amenity.parking" color="184,184,179" fill="1" layer="-1.00" shape="3645.732458,3150.980969 3707.870998,3169.617107 3713.336785,3176.466676 3722.698754,3208.312784 3722.375927,3225.540565 3718.847099,3246.712096 3700.746550,3259.195612 3642.815887,3241.107863 3642.426269,3199.906469 3638.697066,3199.980599 3637.650663,3159.150027 3645.732458,3150.980969"/>
    <poly id="171142734" type="amenity.place_of_worship" color="237,199,199" fill="1" layer="-1.00" shape="2340.645012,3105.613908 2337.795233,3107.911908 2343.194228,3114.628000 2346.044007,3112.329999 2349.472647,3116.599834 2355.305789,3111.914876 2351.877148,3107.645043 2354.214858,3105.762166 2355.060886,3106.829624 2369.465628,3095.250678 2368.619600,3094.198047 2374.564061,3089.409320 2369.165065,3082.678420 2363.209473,3087.467144 2362.274389,3086.310733 2347.869647,3097.874843 2348.804730,3099.046080 2346.467021,3100.928956 2342.771214,3096.332961 2336.949205,3101.017911 2340.645012,3105.613908"/>
    <poly id="171142734#1" type="building.chapel" color="255,230,230" fill="1" layer="-1.00" shape="2340.645012,3105.613908 2337.795233,3107.911908 2343.194228,3114.628000 2346.044007,3112.329999 2349.472647,3116.599834 2355.305789,3111.914876 2351.877148,3107.645043 2354.214858,3105.762166 2355.060886,3106.829624 2369.465628,3095.250678 2368.619600,3094.198047 2374.564061,3089.409320 2369.165065,3082.678420 2363.209473,3087.467144 2362.274389,3086.310733 2347.869647,3097.874843 2348.804730,3099.046080 2346.467021,3100.928956 2342.771214,3096.332961 2336.949205,3101.017911 2340.645012,3105.613908"/>
    <poly id="173163334" type="amenity.school" color="237,199,199" fill="1" layer="-2.00" shape="3206.298768,3587.212443 3316.493932,3604.529858 3347.229243,3629.023380 3346.527931,3633.323096 3349.299786,3634.568532 3343.344193,3650.210622 3340.438754,3650.892648 3317.874294,3720.667064 3309.291561,3780.344902 3323.963470,3797.232685 3327.570221,3811.214428 3316.070918,3825.878229 3306.519706,3841.802341 3293.784756,3858.971944 3234.529391,3824.069346 3231.256598,3823.090770 3221.081996,3826.263728 3132.505078,3773.139062 3157.429512,3696.025043 3162.550208,3693.267275 3178.190597,3647.571481 3174.873276,3642.456294 3177.633999,3634.197867 3189.778956,3639.772675 3204.751427,3588.176168 3206.298768,3587.212443"/>
    <poly id="205703213" type="amenity.fire_station" color="237,199,199" fill="1" layer="-1.00" shape="2529.598715,3932.484285 2497.650022,3850.075773 2499.442265,3842.009918 2507.858019,3832.772743 2625.199894,3788.870338 2647.831147,3841.120302 2635.051669,3844.708420 2621.559747,3922.831866 2620.669191,3928.006510 2529.598715,3932.484285"/>
    <poly id="205703213#1" type="landuse.construction" color="194,194,130" fill="1" layer="-3.00" shape="2529.598715,3932.484285 2497.650022,3850.075773 2499.442265,3842.009918 2507.858019,3832.772743 2625.199894,3788.870338 2647.831147,3841.120302 2635.051669,3844.708420 2621.559747,3922.831866 2620.669191,3928.006510 2529.598715,3932.484285"/>
    <poly id="205703214" type="building.yes" color="255,230,230" fill="1" layer="-1.00" shape="2554.678997,3928.599593 2521.539184,3837.532185 2599.529620,3806.188115 2612.665319,3839.934148 2565.488119,3857.845095 2564.230209,3853.055989 2552.886753,3857.237190 2573.247088,3902.044355 2601.255072,3890.983401 2606.331240,3905.602841 2554.678997,3928.599593"/>
    <poly id="205704537" type="amenity.marketplace" color="237,199,199" fill="1" layer="-1.00" shape="1448.708724,3653.235257 1461.054055,3655.118241 1459.751617,3663.628739 1521.500539,3673.043672 1522.791845,3664.533165 1535.816225,3666.519938 1544.543673,3609.244708 1457.447304,3595.974932 1448.708724,3653.235257"/>
    <poly id="205704537#1" type="building.yes" color="255,230,230" fill="1" layer="-1.00" shape="1448.708724,3653.235257 1461.054055,3655.118241 1459.751617,3663.628739 1521.500539,3673.043672 1522.791845,3664.533165 1535.816225,3666.519938 1544.543673,3609.244708 1457.447304,3595.974932 1448.708724,3653.235257"/>
    <poly id="205704811" type="amenity.school" color="237,199,199" fill="1" layer="-2.00" shape="1582.525884,3736.294467 1650.898315,3562.214926 1659.291804,3558.715872 1739.274859,3604.025755 1745.842709,3620.438779 1686.275649,3762.641674 1660.816881,3756.458896 1582.525884,3736.294467"/>
    <poly id="209439838" type="building.yes" color="255,230,230" fill="1" layer="-1.00" shape="2469.341475,3960.981958 2474.584623,3994.995421 2493.386485,3990.769679 2487.108066,3957.319661 2469.341475,3960.981958"/>
    <poly id="209788843" type="amenity.place_of_worship" color="237,199,199" fill="1" layer="-1.00" shape="3725.181178,3591.482487 3732.762036,3601.149401 3741.901366,3599.577786 3740.075726,3619.178519 3741.901366,3624.397480 3749.215057,3626.488031 3754.179906,3637.207670 3770.388024,3639.298223 3778.224916,3630.150202 3785.282572,3630.150202 3787.631413,3624.664359 3789.457052,3605.330493 3799.130716,3609.244708 3810.106818,3600.096716 3809.583616,3590.429803 3804.874802,3584.677104 3810.886054,3578.939236 3798.351480,3562.466977 3781.887327,3560.376440 3776.655311,3561.429121 3748.179785,3559.857512 3746.343014,3565.862247 3742.947769,3565.862247 3732.238834,3575.010207 3732.238834,3578.939236 3727.530020,3581.548705 3730.146028,3583.639247 3725.181178,3591.482487"/>
    <poly id="209788843#1" type="building.church" color="255,230,230" fill="1" layer="-1.00" shape="3725.181178,3591.482487 3732.762036,3601.149401 3741.901366,3599.577786 3740.075726,3619.178519 3741.901366,3624.397480 3749.215057,3626.488031 3754.179906,3637.207670 3770.388024,3639.298223 3778.224916,3630.150202 3785.282572,3630.150202 3787.631413,3624.664359 3789.457052,3605.330493 3799.130716,3609.244708 3810.106818,3600.096716 3809.583616,3590.429803 3804.874802,3584.677104 3810.886054,3578.939236 3798.351480,3562.466977 3781.887327,3560.376440 3776.655311,3561.429121 3748.179785,3559.857512 3746.343014,3565.862247 3742.947769,3565.862247 3732.238834,3575.010207 3732.238834,3578.939236 3727.530020,3581.548705 3730.146028,3583.639247 3725.181178,3591.482487"/>
    <poly id="209788844" type="building.school" color="255,230,230" fill="1" layer="-1.00" shape="3993.238512,3783.532673 3992.715311,3803.904776 4054.386309,3801.814187 4052.293502,3781.961028 3993.238512,3783.532673"/>
    <poly id="209788845" type="building.industrial" color="255,230,230" fill="1" layer="-1.00" shape="3257.639317,3465.175951 3249.691105,3492.337870 3252.284850,3493.257107 3242.488734,3530.397303 3273.524608,3532.991933 3279.992271,3467.029246 3257.639317,3465.175951"/>
    <poly id="209788849" type="amenity.parking" color="184,184,179" fill="1" layer="-1.00" shape="3025.137429,3687.633130 3042.904019,3645.050954 3078.181166,3670.908631 3064.856223,3699.657587 3025.137429,3687.633130"/>
    <poly id="209788850" type="amenity.parking" color="184,184,179" fill="1" layer="-1.00" shape="3125.213651,3806.277076 3132.015272,3776.741981 3235.453343,3838.747993 3238.358781,3840.497571 3246.206805,3833.706839 3289.844046,3859.846734 3276.251936,3884.148152 3125.213651,3806.277076"/>
    <poly id="226281206" type="building.yes" color="255,230,230" fill="1" layer="-1.00" shape="1931.813050,3281.345738 1944.158381,3283.421388 1950.013787,3264.191988 1936.020927,3261.567778 1931.813050,3281.345738"/>
    <poly id="301855130" type="landuse.railway" color="194,194,130" fill="1" layer="-3.00" shape="3643.951346,3577.130400 3641.791748,3577.234185 3638.095941,3577.397277 3632.774869,3577.634502 3628.166242,3577.842073 3626.373998,3577.916206 3623.613275,3537.291607 3622.422157,3504.154515 3617.345988,3504.302779 3616.299585,3466.391713 3616.299585,3353.667587 3611.023041,3353.682413 3611.023041,3346.610326 3611.000777,3322.013738 3608.017414,3320.827648 3605.100844,3318.811294 3603.831802,3315.905373 3604.432927,3312.613974 3606.525733,3309.930447 3610.989645,3308.210617 3610.978513,3282.605954 3610.945117,3275.519093 3616.299585,3275.519093 3616.299585,3200.796026 3621.375753,3200.796026 3620.184635,3160.336098 3618.670690,3131.781484 3621.854427,3131.470141 3624.715338,3131.158799 3630.136597,3130.669546 3632.774869,3130.402681 3636.248037,3130.061687 3637.650663,3159.150027 3638.697066,3199.980599 3642.426269,3199.906469 3642.815887,3241.107863 3642.893811,3275.593224 3652.244648,3275.578398 3652.333704,3282.576302 3652.344836,3308.210617 3655.940455,3309.633924 3658.322692,3311.650276 3659.669658,3315.149241 3658.400616,3318.514771 3655.417254,3321.198301 3652.355968,3322.087869 3652.378231,3346.580674 3652.378231,3353.593456 3643.027394,3353.593456 3643.550596,3504.050730 3641.012511,3504.080383 3641.903067,3538.863212 3643.951346,3577.130400"/>
    <poly id="384435641" type="building.yes" color="255,230,230" fill="1" layer="-1.00" shape="1541.226352,3664.725912 1588.492608,3675.712474 1594.359145,3660.055515 1573.275234,3655.162721 1573.876359,3652.582885 1545.578945,3645.999858 1541.226352,3664.725912"/>
    <poly id="384435647" type="building.yes" color="255,230,230" fill="1" layer="-1.00" shape="1419.320378,3653.516963 1426.110867,3654.554828 1426.600673,3651.307794 1433.780780,3652.404965 1442.741999,3593.647164 1435.561892,3592.549999 1436.107357,3588.947148 1429.328000,3587.909290 1419.320378,3653.516963"/>
    <poly id="422954285" type="building.house" color="255,230,230" fill="1" layer="-1.00" shape="1864.564945,3561.191897 1871.232983,3543.088756 1901.344905,3554.178965 1894.676868,3572.282127 1864.564945,3561.191897"/>
    <poly id="422954287" type="building.house" color="255,230,230" fill="1" layer="-1.00" shape="1924.176533,3571.007046 1929.709111,3556.625336 1954.611282,3566.203256 1947.164008,3585.551870 1950.804155,3586.945565 1947.542494,3595.426350 1934.551509,3590.429803 1939.727866,3576.982134 1924.176533,3571.007046"/>
    <poly id="422954288" type="leisure.pitch" color="207,245,201" fill="1" layer="-2.00" shape="1603.286969,3717.345873 1626.352367,3666.089965 1651.076426,3677.209968 1628.022159,3728.465935 1603.286969,3717.345873"/>
    <poly id="422954288#1" type="sport.multi" color="79,230,125" fill="1" layer="-2.00" shape="1603.286969,3717.345873 1626.352367,3666.089965 1651.076426,3677.209968 1628.022159,3728.465935 1603.286969,3717.345873"/>
    <poly id="422954298" type="building.yes" color="255,230,230" fill="1" layer="-1.00" shape="1183.501169,4096.265506 1185.349072,4143.505473 1345.036882,4137.248314 1342.621249,4075.596240 1329.173854,4076.130022 1329.741584,4090.542161 1183.501169,4096.265506"/>
    <poly id="459192792" type="leisure.garden" color="207,245,201" fill="1" layer="-2.00" shape="2305.802011,3313.844542 2301.326968,3314.674805 2296.818528,3314.022455 2292.755367,3311.991277 2289.549365,3308.759183 2287.489955,3304.489264 2286.955621,3299.789389 2288.013156,3295.163647 2290.540109,3291.160602 2294.258180,3288.225038 2298.733223,3286.683125 2303.464302,3286.697951 2307.928213,3288.299168 2311.601757,3291.279211 2314.017390,3295.133994 2315.074925,3299.552171 2314.674175,3304.088959 2312.837403,3308.255096 2309.776117,3311.620624 2305.802011,3313.844542"/>
    <poly id="459192793" type="leisure.garden" color="207,245,201" fill="1" layer="-2.00" shape="2549.491508,4058.574524 2544.404208,4059.894151 2539.172192,4059.538297 2534.318662,4057.521789 2530.199841,4053.889110 2527.528173,4049.099907 2526.593089,4043.687962 2527.517041,4038.276020 2530.177577,4033.486824 2534.285266,4029.839327 2539.361435,4027.763517 2544.849486,4027.496627 2550.103766,4029.053485 2554.378434,4032.107892 2557.461984,4036.363307 2559.031589,4041.374912 2558.920269,4046.638583 2557.150289,4051.576058 2553.888628,4055.698035 2549.491508,4058.574524"/>
    <poly id="487086400" type="building.roof" color="255,230,230" fill="1" layer="-1.00" shape="3642.904943,3282.576302 3635.869551,3282.591128 3635.479933,3199.980599 3638.697066,3199.980599 3642.426269,3199.906469 3642.815887,3241.107863 3642.893811,3275.593224 3642.904943,3282.576302"/>
    <poly id="487086401" type="building.roof" color="255,230,230" fill="1" layer="-1.00" shape="3620.307086,3282.605954 3624.871185,3282.591128 3624.737602,3200.796026 3621.375753,3200.796026 3616.299585,3200.796026 3616.299585,3275.519093 3620.307086,3275.504267 3620.307086,3282.605954"/>
    <poly id="487086402" type="building.roof" color="255,230,230" fill="1" layer="-1.00" shape="3643.550596,3504.050730 3643.027394,3353.593456 3643.027394,3346.580674 3636.158982,3346.595500 3636.893690,3504.110036 3641.012511,3504.080383 3643.550596,3504.050730"/>
    <poly id="487086403" type="building.roof" color="255,230,230" fill="1" layer="-1.00" shape="3625.260804,3504.006251 3622.422157,3504.154515 3617.345988,3504.302779 3616.299585,3466.391713 3616.299585,3353.667587 3620.385010,3353.667587 3620.373878,3346.595500 3622.722719,3346.595500 3625.260804,3504.006251"/>
    <poly id="487086404" type="building.train_station" color="255,230,230" fill="1" layer="-1.00" shape="3611.000777,3322.013738 3608.017414,3320.827648 3605.100844,3318.811294 3603.831802,3315.905373 3604.432927,3312.613974 3606.525733,3309.930447 3610.989645,3308.210617 3611.000777,3322.013738"/>
    <poly id="487086405" type="building.train_station" color="255,230,230" fill="1" layer="-1.00" shape="3652.355968,3322.087869 3655.417254,3321.198301 3658.400616,3318.514771 3659.669658,3315.149241 3658.322692,3311.650276 3655.940455,3309.633924 3652.344836,3308.210617 3652.355968,3322.087869"/>
    <poly id="487086406" type="building.train_station" color="255,230,230" fill="1" layer="-1.00" shape="3611.000777,3322.013738 3610.989645,3308.210617 3652.344836,3308.210617 3652.355968,3322.087869 3611.000777,3322.013738"/>
    <poly id="487086407" type="building.train_station" color="255,230,230" fill="1" layer="-1.00" shape="3652.355968,3322.087869 3652.378231,3346.580674 3643.027394,3346.580674 3636.158982,3346.595500 3622.722719,3346.595500 3620.373878,3346.595500 3616.299585,3346.610326 3611.023041,3346.610326 3611.000777,3322.013738 3652.355968,3322.087869"/>
    <poly id="487086408" type="building.train_station" color="255,230,230" fill="1" layer="-1.00" shape="3620.373878,3346.595500 3616.299585,3346.610326 3611.023041,3346.610326 3611.023041,3353.682413 3616.299585,3353.667587 3620.385010,3353.667587 3620.373878,3346.595500"/>
    <poly id="487086409" type="building.train_station" color="255,230,230" fill="1" layer="-1.00" shape="3652.244648,3275.578398 3642.893811,3275.593224 3642.904943,3282.576302 3652.333704,3282.576302 3652.244648,3275.578398"/>
    <poly id="487086410" type="building.train_station" color="255,230,230" fill="1" layer="-1.00" shape="3620.307086,3275.504267 3616.299585,3275.519093 3610.945117,3275.519093 3610.978513,3282.605954 3616.299585,3282.605954 3620.307086,3282.605954 3620.307086,3275.504267"/>
    <poly id="487086411" type="building.train_station" color="255,230,230" fill="1" layer="-1.00" shape="3652.378231,3346.580674 3643.027394,3346.580674 3643.027394,3353.593456 3652.378231,3353.593456 3652.378231,3346.580674"/>
    <poly id="487086412" type="building.train_station" color="255,230,230" fill="1" layer="-1.00" shape="3652.344836,3308.210617 3610.989645,3308.210617 3610.978513,3282.605954 3616.299585,3282.605954 3620.307086,3282.605954 3624.871185,3282.591128 3635.869551,3282.591128 3642.904943,3282.576302 3652.333704,3282.576302 3652.344836,3308.210617"/>
    <poly id="496779038" type="leisure.park" color="207,245,201" fill="1" layer="-2.00" shape="2705.672754,3402.920292 2577.287985,3251.841900 2525.212727,3166.800187 2477.968736,3192.790017 2482.176612,3203.005092 2488.666539,3200.351247 2492.729700,3207.052578 2488.722198,3209.068908 2486.028267,3215.473726 2491.905936,3217.074931 2493.397617,3230.907573 2528.697028,3239.462176 2597.971147,3312.599148 2654.065038,3382.815906 2675.160082,3402.608940 2703.079010,3428.792147 2725.576679,3459.512286 2729.461729,3465.368694 2731.855098,3468.882541 2732.211321,3474.175553 2738.011066,3500.077252 2745.870222,3506.437783 2760.174777,3525.979021 2820.843899,3604.025755 2887.357295,3671.590658 2938.074455,3708.924288 2942.304596,3716.841764 2969.210516,3717.286566 2972.238407,3732.068838 2985.663537,3745.235014 3000.246391,3747.547992 3002.027502,3759.335296 3081.810181,3816.818992 3104.975767,3824.173134 3108.927609,3798.048163 3112.244930,3785.415682 3070.444461,3745.042265 3000.435634,3683.911630 2937.350878,3620.305340 2886.021461,3569.361303 2812.750972,3514.355093 2705.672754,3402.920292"/>
    <poly id="496779039" type="leisure.park" color="207,245,201" fill="1" layer="-2.00" shape="2213.239855,3079.535358 2206.248990,3050.980982 2203.421475,3039.416929 2232.041717,3042.589630 2240.090116,3040.840197 2290.606901,2995.547782 2340.778595,2954.673598 2367.205842,2970.092203 2376.667999,2973.398311 2383.848106,2976.378257 2392.308387,2976.615467 2408.661221,2976.882328 2513.479653,2977.282619 2519.446378,3048.089968 2508.804235,3108.816282 2514.091910,3163.123365 2496.637014,3170.892135 2467.794134,3185.006404 2432.928870,3200.232640 2395.670236,3230.403490 2359.090651,3255.919058 2338.396358,3269.959321 2313.304945,3275.919397 2282.436050,3261.775343 2213.239855,3079.535358"/>
    <poly id="496787923" type="building.yes" color="255,230,230" fill="1" layer="-1.00" shape="2417.622440,2966.074468 2436.702600,2965.807608 2437.069955,2961.775049 2445.329861,2961.211677 2445.096090,2950.122149 2443.949499,2950.033195 2443.904971,2938.750949 2435.923364,2940.070422 2435.878836,2949.751510 2417.444328,2949.929417 2417.622440,2966.074468"/>
    <poly id="496787925" type="building.yes" color="255,230,230" fill="1" layer="-1.00" shape="2441.411415,3946.940690 2438.183150,4029.409338 2445.608160,4028.104543 2446.075701,4030.224835 2524.656130,4016.494838 2524.311040,4014.493166 2529.275889,4013.455262 2528.541180,4008.028510 2531.613598,4007.257496 2530.845494,4003.417256 2533.083015,4003.105885 2532.882640,3999.058065 2535.153558,3998.865312 2534.775072,3996.492965 2537.079385,3995.751606 2537.023725,3990.903123 2516.273772,3937.629280 2506.733692,3941.869826 2506.188226,3940.327809 2494.421756,3945.250402 2495.189861,3946.792419 2494.110062,3947.326195 2513.034375,3994.787840 2461.415527,4003.565527 2464.499077,3948.630979 2461.960993,3948.556844 2461.883069,3946.406915 2452.342989,3946.021411 2452.420912,3947.785835 2441.411415,3946.940690"/>
    <poly id="496787926" type="building.yes" color="255,230,230" fill="1" layer="-1.00" shape="2445.218541,3679.863944 2468.495447,3670.285911 2442.424422,3606.887283 2419.793170,3616.183548 2421.340511,3619.979155 2422.587289,3619.460224 2427.407423,3631.202891 2426.149513,3631.706996 2430.201542,3641.551870 2431.236813,3641.121898 2435.734121,3652.049126 2434.543002,3652.538405 2438.639559,3662.501913 2439.385400,3662.190553 2444.261194,3674.037059 2443.036679,3674.541166 2445.218541,3679.863944"/>
    <poly id="496787927" type="building.yes" color="255,230,230" fill="1" layer="-1.00" shape="2398.030209,3515.600513 2375.721783,3524.526029 2383.848106,3544.838280 2406.156532,3535.912746 2398.030209,3515.600513"/>
    <poly id="496787928" type="building.yes" color="255,230,230" fill="1" layer="-1.00" shape="2294.714590,3473.360102 2329.524195,3453.477965 2322.499935,3437.361751 2286.766378,3455.598132 2294.714590,3473.360102"/>
    <poly id="496787929" type="building.apartments" color="255,230,230" fill="1" layer="-1.00" shape="2336.181100,3460.742873 2311.557229,3470.750662 2319.015635,3489.120543 2343.639506,3479.112734 2336.181100,3460.742873"/>
    <poly id="496787931" type="amenity.parking" color="184,184,179" fill="1" layer="-1.00" shape="2354.025615,3519.514692 2316.633398,3564.290637 2283.994523,3524.273979 2311.245534,3500.744440 2318.637148,3493.983600 2341.557832,3485.058113 2354.025615,3519.514692"/>
    <poly id="496787932" type="building.yes" color="255,230,230" fill="1" layer="-1.00" shape="2279.864570,3519.218163 2283.994523,3524.273979 2316.633398,3564.290637 2275.868200,3615.990802 2232.631710,3562.748680 2279.864570,3519.218163"/>
    <poly id="496787934" type="building.school" color="255,230,230" fill="1" layer="-1.00" shape="1657.321449,2720.728933 1644.408389,2777.717213 1672.728067,2784.136569 1677.548201,2762.906751 1682.435127,2742.314465 1685.863767,2727.192727 1657.321449,2720.728933"/>
    <poly id="496787935" type="building.school" color="255,230,230" fill="1" layer="-1.00" shape="1642.783124,2853.534087 1640.033533,2865.438903 1632.185508,2863.630200 1628.779132,2878.351864 1633.565870,2879.463773 1630.215153,2893.963079 1664.824383,2901.968839 1668.308683,2886.891329 1674.063901,2888.225621 1676.679909,2876.898970 1671.948831,2875.801886 1675.355207,2861.065401 1642.783124,2853.534087"/>
    <poly id="496787940" type="amenity.school" color="237,199,199" fill="1" layer="-2.00" shape="1866.991710,2870.242344 1801.713961,2977.341921 1731.460230,2951.323020 1696.717417,2974.628836 1629.179882,2958.083480 1609.921610,2864.831060 1649.785120,2695.451981 1673.351456,2710.529193 1866.991710,2870.242344"/>