<?xml version="1.0" encoding="UTF-8"?>

<!-- generated on 2022-11-17 16:51:55.319317 by osmWebWizard.py UNKNOWN
<configuration>
    <end value="3600"/>
    <fringe-factor value="5.0"/>
    <fringe-start-attributes value="departSpeed=&quot;max&quot;"/>
    <min-distance value="600.0"/>
    <net-file value="/home/joao/dir/2022-11-17-16-51-43/osm.net.xml"/>
    <period value="3.258912564607038"/>
    <route-file value="/home/joao/dir/2022-11-17-16-51-43/osm.truck.rou.xml"/>
    <trip-attributes value="departLane=&quot;best&quot;"/>
    <output-trip-file value="/home/joao/dir/2022-11-17-16-51-43/osm.truck.trips.xml"/>
    <prefix value="truck"/>
    <validate value="True"/>
    <vclass value="truck"/>
    <vehicle-class value="truck"/>
</configuration>
-->

<!-- generated on 2022-11-17 16:51:55 by Eclipse SUMO duarouter Version 1.14.0
<configuration xmlns:xsi="http://www.w3.org/2001/XMLSchema-instance" xsi:noNamespaceSchemaLocation="http://sumo.dlr.de/xsd/duarouterConfiguration.xsd">

    <input>
        <net-file value="/home/joao/dir/2022-11-17-16-51-43/osm.net.xml"/>
        <route-files value="/home/joao/dir/2022-11-17-16-51-43/osm.truck.trips.xml"/>
    </input>

    <output>
        <output-file value="/home/joao/dir/2022-11-17-16-51-43/osm.truck.trips.xml.tmp"/>
        <alternatives-output value="NUL"/>
        <write-trips value="true"/>
    </output>

    <time>
        <begin value="0"/>
        <end value="3600"/>
    </time>

    <report>
        <no-warnings value="true"/>
        <ignore-errors value="true"/>
        <no-step-log value="true"/>
    </report>

</configuration>
-->

<routes xmlns:xsi="http://www.w3.org/2001/XMLSchema-instance" xsi:noNamespaceSchemaLocation="http://sumo.dlr.de/xsd/routes_file.xsd">
    <vType id="truck_truck" vClass="truck"/>
    <trip id="truck0" type="truck_truck" depart="0.00" departLane="best" from="137729417#1" to="-105885559#0"/>
    <trip id="truck1" type="truck_truck" depart="3.26" departLane="best" from="-51202070#0" to="-362101722#1"/>
    <trip id="truck2" type="truck_truck" depart="6.52" departLane="best" from="362101722#0" to="203342432#1"/>
    <trip id="truck3" type="truck_truck" depart="9.78" departLane="best" from="52171550#4" to="-121662236"/>
    <trip id="truck4" type="truck_truck" depart="13.04" departLane="best" from="104690505" to="-107833668#0"/>
    <trip id="truck5" type="truck_truck" depart="16.29" departLane="best" from="-362101859" to="107833668#4"/>
    <trip id="truck6" type="truck_truck" depart="19.55" departLane="best" from="-105885540" to="-306056601#0"/>
    <trip id="truck7" type="truck_truck" depart="22.81" departLane="best" from="171143135" to="121169542#0"/>
    <trip id="truck8" type="truck_truck" depart="26.07" departLane="best" from="-362102053" to="137729106#1"/>
    <trip id="truck9" type="truck_truck" depart="29.33" departLane="best" departSpeed="max" from="-540229708#5" to="-152828493"/>
    <trip id="truck10" type="truck_truck" depart="32.59" departLane="best" from="749618910" to="-51503445"/>
    <trip id="truck11" type="truck_truck" depart="35.85" departLane="best" departSpeed="max" from="-136751798" to="-137729103#0"/>
    <trip id="truck12" type="truck_truck" depart="39.11" departLane="best" from="51203053#5" to="137729148#0"/>
    <trip id="truck13" type="truck_truck" depart="42.37" departLane="best" from="51202070#5" to="307820915#1"/>
    <trip id="truck14" type="truck_truck" depart="45.62" departLane="best" departSpeed="max" from="121169579#0" to="95141633#2"/>
    <trip id="truck15" type="truck_truck" depart="48.88" departLane="best" from="-749618914#1" to="121169551"/>
    <trip id="truck16" type="truck_truck" depart="52.14" departLane="best" departSpeed="max" from="51202644" to="137729197#6"/>
    <trip id="truck17" type="truck_truck" depart="55.40" departLane="best" departSpeed="max" from="51503411" to="121921782#1"/>
    <trip id="truck18" type="truck_truck" depart="58.66" departLane="best" departSpeed="max" from="306056601#0" to="-108526596#0"/>
    <trip id="truck19" type="truck_truck" depart="61.92" departLane="best" from="-362103123" to="-51202432#0"/>
    <trip id="truck20" type="truck_truck" depart="65.18" departLane="best" from="-137729106#1" to="-50885124#7"/>
    <trip id="truck21" type="truck_truck" depart="68.44" departLane="best" from="137729358" to="-540229708#0"/>
    <trip id="truck22" type="truck_truck" depart="71.70" departLane="best" from="-736768978#3" to="-307820912#0"/>
    <trip id="truck23" type="truck_truck" depart="74.95" departLane="best" from="-384435726#0" to="696015265#2"/>
    <trip id="truck24" type="truck_truck" depart="78.21" departLane="best" from="171143093" to="137729167"/>
    <trip id="truck25" type="truck_truck" depart="81.47" departLane="best" from="-205706905" to="307820915#0"/>
    <trip id="truck27" type="truck_truck" depart="87.99" departLane="best" departSpeed="max" from="121662236" to="209439843#1"/>
    <trip id="truck28" type="truck_truck" depart="91.25" departLane="best" from="51203053#0" to="362103133#2"/>
    <trip id="truck29" type="truck_truck" depart="94.51" departLane="best" from="-362103124" to="-107833668#0"/>
    <trip id="truck30" type="truck_truck" depart="97.77" departLane="best" from="-52171550#2" to="-362758252"/>
    <trip id="truck31" type="truck_truck" depart="101.03" departLane="best" from="-362101471#1" to="736768978#3"/>
    <trip id="truck32" type="truck_truck" depart="104.29" departLane="best" departSpeed="max" from="51503438" to="-51203130#3"/>
    <trip id="truck33" type="truck_truck" depart="107.54" departLane="best" from="540229758" to="105464620#1"/>
    <trip id="truck34" type="truck_truck" depart="110.80" departLane="best" from="-362758251#0" to="-362103134"/>
    <trip id="truck35" type="truck_truck" depart="114.06" departLane="best" from="136734849" to="-362758239"/>
    <trip id="truck36" type="truck_truck" depart="117.32" departLane="best" departSpeed="max" from="137729111#0" to="540229708#0"/>
    <trip id="truck37" type="truck_truck" depart="120.58" departLane="best" departSpeed="max" from="-95161504" to="-362101471#1"/>
    <trip id="truck38" type="truck_truck" depart="123.84" departLane="best" from="95166000#0" to="107833677#1"/>
    <trip id="truck39" type="truck_truck" depart="127.10" departLane="best" from="-136734874" to="-108526597"/>
    <trip id="truck40" type="truck_truck" depart="130.36" departLane="best" departSpeed="max" from="-137729137" to="137729208#1"/>
    <trip id="truck41" type="truck_truck" depart="133.62" departLane="best" departSpeed="max" from="-121169551" to="-68663946#0"/>
    <trip id="truck42" type="truck_truck" depart="136.87" departLane="best" from="95141099#2" to="51203069#1"/>
    <trip id="truck43" type="truck_truck" depart="140.13" departLane="best" departSpeed="max" from="209446996" to="1111186754#1"/>
    <trip id="truck45" type="truck_truck" depart="146.65" departLane="best" from="-137729142#0" to="1041474739#0"/>
    <trip id="truck46" type="truck_truck" depart="149.91" departLane="best" from="105885543" to="891019869"/>
    <trip id="truck47" type="truck_truck" depart="153.17" departLane="best" departSpeed="max" from="51503438" to="-362758249"/>
    <trip id="truck48" type="truck_truck" depart="156.43" departLane="best" from="108487140#1" to="-209439858"/>
    <trip id="truck49" type="truck_truck" depart="159.69" departLane="best" from="540229708#3" to="51503414#1"/>
    <trip id="truck52" type="truck_truck" depart="169.46" departLane="best" from="362103132" to="1111186756"/>
    <trip id="truck53" type="truck_truck" depart="172.72" departLane="best" from="-1022579542#0" to="-51503414#0"/>
    <trip id="truck54" type="truck_truck" depart="175.98" departLane="best" from="-105464615" to="68663921#2"/>
    <trip id="truck55" type="truck_truck" depart="179.24" departLane="best" departSpeed="max" from="51503438" to="51202344#1"/>
    <trip id="truck56" type="truck_truck" depart="182.50" departLane="best" from="-51203130#5" to="-121169544#0"/>
    <trip id="truck57" type="truck_truck" depart="185.76" departLane="best" departSpeed="max" from="51503438" to="736768979#0"/>
    <trip id="truck58" type="truck_truck" depart="189.02" departLane="best" departSpeed="max" from="-121921782#1" to="105885553#4"/>
    <trip id="truck59" type="truck_truck" depart="192.28" departLane="best" from="362103306" to="-137729197#3"/>
    <trip id="truck60" type="truck_truck" depart="195.53" departLane="best" from="107833666#0" to="121169551"/>
    <trip id="truck61" type="truck_truck" depart="198.79" departLane="best" from="-362758251#0" to="51503439#1"/>
    <trip id="truck62" type="truck_truck" depart="202.05" departLane="best" from="121662124#0" to="307820915#1"/>
    <trip id="truck63" type="truck_truck" depart="205.31" departLane="best" from="-307820912#0" to="-51203130#0"/>
    <trip id="truck64" type="truck_truck" depart="208.57" departLane="best" from="95161509#4" to="137729315#1"/>
    <trip id="truck65" type="truck_truck" depart="211.83" departLane="best" from="105885512" to="108487140#1"/>
    <trip id="truck66" type="truck_truck" depart="215.09" departLane="best" departSpeed="max" from="-137729167" to="-362101723#0"/>
    <trip id="truck67" type="truck_truck" depart="218.35" departLane="best" departSpeed="max" from="-540229708#5" to="137729104#2"/>
    <trip id="truck68" type="truck_truck" depart="221.61" departLane="best" from="-121662124#3" to="137729208#4"/>
    <trip id="truck69" type="truck_truck" depart="224.86" departLane="best" from="-362103124" to="540229715"/>
    <trip id="truck70" type="truck_truck" depart="228.12" departLane="best" from="51203130#5" to="-121662124#2"/>
    <trip id="truck71" type="truck_truck" depart="231.38" departLane="best" departSpeed="max" from="-362103133#2" to="137729509"/>
    <trip id="truck72" type="truck_truck" depart="234.64" departLane="best" from="68663921#4" to="121662234"/>
    <trip id="truck73" type="truck_truck" depart="237.90" departLane="best" from="105885559#1" to="362753646"/>
    <trip id="truck74" type="truck_truck" depart="241.16" departLane="best" from="-137729103#3" to="1022579542#0"/>
    <trip id="truck75" type="truck_truck" depart="244.42" departLane="best" from="359890082" to="171143067"/>
    <trip id="truck76" type="truck_truck" depart="247.68" departLane="best" from="95141634" to="-137729104#0"/>
    <trip id="truck77" type="truck_truck" depart="250.94" departLane="best" from="-95161509#1" to="-52171549"/>
    <trip id="truck78" type="truck_truck" depart="254.20" departLane="best" departSpeed="max" from="51503411" to="-362103306"/>
    <trip id="truck79" type="truck_truck" depart="257.45" departLane="best" from="-209446999" to="104690506"/>
    <trip id="truck80" type="truck_truck" depart="260.71" departLane="best" from="104690505" to="-50885124#7"/>
    <trip id="truck81" type="truck_truck" depart="263.97" departLane="best" from="-362753646" to="68663913#0"/>
    <trip id="truck82" type="truck_truck" depart="267.23" departLane="best" departSpeed="max" from="105885524" to="51203069#1"/>
    <trip id="truck83" type="truck_truck" depart="270.49" departLane="best" from="121662207" to="-1103858919#3"/>
    <trip id="truck84" type="truck_truck" depart="273.75" departLane="best" from="952053659" to="51202391#1"/>
    <trip id="truck85" type="truck_truck" depart="277.01" departLane="best" from="95141099#0" to="68663913#3"/>
    <trip id="truck86" type="truck_truck" depart="280.27" departLane="best" from="51203053#7" to="-205706905"/>
    <trip id="truck87" type="truck_truck" depart="283.53" departLane="best" departSpeed="max" from="107833669" to="-307820912#5"/>
    <trip id="truck88" type="truck_truck" depart="286.78" departLane="best" from="-95161506#1" to="-121169544#0"/>
    <trip id="truck89" type="truck_truck" depart="290.04" departLane="best" from="-81152478" to="95161506#0"/>
    <trip id="truck90" type="truck_truck" depart="293.30" departLane="best" from="-362758251#0" to="362753644"/>
    <trip id="truck91" type="truck_truck" depart="296.56" departLane="best" from="105885547" to="-95161506#1"/>
    <trip id="truck92" type="truck_truck" depart="299.82" departLane="best" from="749618910" to="95166000#2"/>
    <trip id="truck93" type="truck_truck" depart="303.08" departLane="best" departSpeed="max" from="121662236" to="306056617"/>
    <trip id="truck94" type="truck_truck" depart="306.34" departLane="best" from="-137729334" to="-51202828"/>
    <trip id="truck95" type="truck_truck" depart="309.60" departLane="best" from="940617673" to="136734874"/>
    <trip id="truck96" type="truck_truck" depart="312.86" departLane="best" from="121662124#3" to="362101723#1"/>
    <trip id="truck97" type="truck_truck" depart="316.11" departLane="best" from="-121169535#0" to="137612525"/>
    <trip id="truck98" type="truck_truck" depart="319.37" departLane="best" from="108526597" to="51203053#1"/>
    <trip id="truck99" type="truck_truck" depart="322.63" departLane="best" from="-137729395" to="95141103#0"/>
    <trip id="truck100" type="truck_truck" depart="325.89" departLane="best" from="-121662207" to="-209446996"/>
    <trip id="truck101" type="truck_truck" depart="329.15" departLane="best" from="137729148#0" to="171143107"/>
    <trip id="truck102" type="truck_truck" depart="332.41" departLane="best" from="-362103130" to="-137729142#0"/>
    <trip id="truck103" type="truck_truck" depart="335.67" departLane="best" from="52171550#2" to="-362103133#0"/>
    <trip id="truck104" type="truck_truck" depart="338.93" departLane="best" from="137729148#0" to="137729198#0"/>
    <trip id="truck105" type="truck_truck" depart="342.19" departLane="best" from="104690500" to="136751798"/>
    <trip id="truck106" type="truck_truck" depart="345.44" departLane="best" from="-307820912#4" to="214847748#1"/>
    <trip id="truck107" type="truck_truck" depart="348.70" departLane="best" departSpeed="max" from="-362103133#2" to="-736768978#3"/>
    <trip id="truck108" type="truck_truck" depart="351.96" departLane="best" from="209439856" to="-51202841#0"/>
    <trip id="truck109" type="truck_truck" depart="355.22" departLane="best" from="-52171550#3" to="362102100"/>
    <trip id="truck110" type="truck_truck" depart="358.48" departLane="best" from="-121662127#0" to="105464620#0"/>
    <trip id="truck111" type="truck_truck" depart="361.74" departLane="best" from="95166000#1" to="95166000#2"/>
    <trip id="truck112" type="truck_truck" depart="365.00" departLane="best" from="-121662127#1" to="-307820912#4"/>
    <trip id="truck113" type="truck_truck" depart="368.26" departLane="best" from="-362758251#0" to="68663924"/>
    <trip id="truck114" type="truck_truck" depart="371.52" departLane="best" from="51503439#1" to="52171550#4"/>
    <trip id="truck115" type="truck_truck" depart="374.77" departLane="best" from="-736768978#3" to="-171142742#2"/>
    <trip id="truck116" type="truck_truck" depart="378.03" departLane="best" departSpeed="max" from="51202828" to="209446999"/>
    <trip id="truck117" type="truck_truck" depart="381.29" departLane="best" departSpeed="max" from="137729208#0" to="95161509#0"/>
    <trip id="truck118" type="truck_truck" depart="384.55" departLane="best" departSpeed="max" from="203342432#0" to="-105885524"/>
    <trip id="truck119" type="truck_truck" depart="387.81" departLane="best" from="51202343#6" to="-51202841#0"/>
    <trip id="truck120" type="truck_truck" depart="391.07" departLane="best" from="205706908" to="696015268"/>
    <trip id="truck121" type="truck_truck" depart="394.33" departLane="best" departSpeed="max" from="-137729137" to="121169551"/>
    <trip id="truck122" type="truck_truck" depart="397.59" departLane="best" from="-50885124#5" to="137729155#0"/>
    <trip id="truck123" type="truck_truck" depart="400.85" departLane="best" from="307820912#1" to="-306056601#2"/>
    <trip id="truck124" type="truck_truck" depart="404.11" departLane="best" from="137729348" to="-362758250"/>
    <trip id="truck125" type="truck_truck" depart="407.36" departLane="best" departSpeed="max" from="107833669" to="540229715"/>
    <trip id="truck126" type="truck_truck" depart="410.62" departLane="best" from="51203053#4" to="-136734931"/>
    <trip id="truck127" type="truck_truck" depart="413.88" departLane="best" from="104690507#1" to="-50885124#5"/>
    <trip id="truck128" type="truck_truck" depart="417.14" departLane="best" departSpeed="max" from="-1041474739#1" to="362103132"/>
    <trip id="truck129" type="truck_truck" depart="420.40" departLane="best" from="137729409#0" to="-362758238#0"/>
    <trip id="truck130" type="truck_truck" depart="423.66" departLane="best" from="362101859" to="121169551"/>
    <trip id="truck131" type="truck_truck" depart="426.92" departLane="best" from="105464620#0" to="-105885524"/>
    <trip id="truck132" type="truck_truck" depart="430.18" departLane="best" from="-121662136" to="52171550#7"/>
    <trip id="truck133" type="truck_truck" depart="433.44" departLane="best" departSpeed="max" from="52986097#0" to="121169542#1"/>
    <trip id="truck134" type="truck_truck" depart="436.69" departLane="best" departSpeed="max" from="51202828" to="136751798"/>
    <trip id="truck135" type="truck_truck" depart="439.95" departLane="best" from="-51503412#0" to="540229708#3"/>
    <trip id="truck136" type="truck_truck" depart="443.21" departLane="best" from="50885124#6" to="51203069#0"/>
    <trip id="truck137" type="truck_truck" depart="446.47" departLane="best" departSpeed="max" from="52986063" to="-307820912#0"/>
    <trip id="truck138" type="truck_truck" depart="449.73" departLane="best" from="-362753646" to="-137729106#0"/>
    <trip id="truck139" type="truck_truck" depart="452.99" departLane="best" from="362758238#0" to="52171550#7"/>
    <trip id="truck140" type="truck_truck" depart="456.25" departLane="best" from="-95161515#0" to="137729198#0-AddedOffRampEdge"/>
    <trip id="truck141" type="truck_truck" depart="459.51" departLane="best" from="-137729334" to="68663921#2"/>
    <trip id="truck142" type="truck_truck" depart="462.77" departLane="best" from="51503412#0" to="95141635"/>
    <trip id="truck143" type="truck_truck" depart="466.02" departLane="best" from="51202154" to="52171550#6"/>
    <trip id="truck144" type="truck_truck" depart="469.28" departLane="best" from="-105885528#4" to="360582696"/>
    <trip id="truck145" type="truck_truck" depart="472.54" departLane="best" from="-52986097#2" to="68663921#4"/>
    <trip id="truck146" type="truck_truck" depart="475.80" departLane="best" from="51202154" to="-362758252"/>
    <trip id="truck148" type="truck_truck" depart="482.32" departLane="best" from="-362102190" to="51202070#0"/>
    <trip id="truck149" type="truck_truck" depart="485.58" departLane="best" from="105885554" to="-51202967#0"/>
    <trip id="truck150" type="truck_truck" depart="488.84" departLane="best" from="50885124#5" to="-362102052"/>
    <trip id="truck151" type="truck_truck" depart="492.10" departLane="best" from="-105885528#3" to="-209447001#3"/>
    <trip id="truck152" type="truck_truck" depart="495.35" departLane="best" departSpeed="max" from="-52986096#3" to="51203130#1"/>
    <trip id="truck153" type="truck_truck" depart="498.61" departLane="best" from="891019869" to="-51202070#0"/>
    <trip id="truck154" type="truck_truck" depart="501.87" departLane="best" from="137729443#0" to="-736768979#1"/>
    <trip id="truck155" type="truck_truck" depart="505.13" departLane="best" from="95141631#7" to="1111186753"/>
    <trip id="truck156" type="truck_truck" depart="508.39" departLane="best" departSpeed="max" from="68663946#0" to="-137729111#0"/>
    <trip id="truck157" type="truck_truck" depart="511.65" departLane="best" from="95141099#1" to="-209439858"/>
    <trip id="truck158" type="truck_truck" depart="514.91" departLane="best" departSpeed="max" from="840849233" to="-362758251#0"/>
    <trip id="truck159" type="truck_truck" depart="518.17" departLane="best" departSpeed="max" from="-137729137" to="1041474739#0"/>
    <trip id="truck160" type="truck_truck" depart="521.43" departLane="best" from="359890082" to="-51203130#2"/>
    <trip id="truck161" type="truck_truck" depart="524.68" departLane="best" from="-95141103#1" to="121921782#1"/>
    <trip id="truck162" type="truck_truck" depart="527.94" departLane="best" from="-362753661" to="209447004"/>
    <trip id="truck163" type="truck_truck" depart="531.20" departLane="best" from="-1022579542#1" to="68663913#2"/>
    <trip id="truck164" type="truck_truck" depart="534.46" departLane="best" from="121662114" to="307820909"/>
    <trip id="truck165" type="truck_truck" depart="537.72" departLane="best" from="362102052" to="171142738"/>
    <trip id="truck166" type="truck_truck" depart="540.98" departLane="best" from="-696015267" to="-121662124#1"/>
    <trip id="truck168" type="truck_truck" depart="547.50" departLane="best" from="-52171549" to="51202959#1"/>
    <trip id="truck169" type="truck_truck" depart="550.76" departLane="best" from="307820912#4" to="-51202841#1"/>
    <trip id="truck170" type="truck_truck" depart="554.02" departLane="best" from="-51503412#1" to="-840849233"/>
    <trip id="truck171" type="truck_truck" depart="557.27" departLane="best" from="-95161509#1" to="-51202828"/>
    <trip id="truck172" type="truck_truck" depart="560.53" departLane="best" from="-137729208#2" to="-95141637#2"/>
    <trip id="truck173" type="truck_truck" depart="563.79" departLane="best" departSpeed="max" from="52986097#0" to="137729197#0"/>
    <trip id="truck174" type="truck_truck" depart="567.05" departLane="best" from="-51203069#1" to="121169544#4"/>
    <trip id="truck175" type="truck_truck" depart="570.31" departLane="best" from="105464620#2" to="136751798"/>
    <trip id="truck176" type="truck_truck" depart="573.57" departLane="best" departSpeed="max" from="203342432#0" to="105861359"/>
    <trip id="truck177" type="truck_truck" depart="576.83" departLane="best" departSpeed="max" from="105885524" to="-307820912#5"/>
    <trip id="truck178" type="truck_truck" depart="580.09" departLane="best" from="107824325#0" to="540229708#4"/>
    <trip id="truck179" type="truck_truck" depart="583.35" departLane="best" from="50885124#6" to="-205706907"/>
    <trip id="truck180" type="truck_truck" depart="586.60" departLane="best" from="-121921782#0" to="108487139#2"/>
    <trip id="truck181" type="truck_truck" depart="589.86" departLane="best" from="137729334" to="-51503438"/>
    <trip id="truck182" type="truck_truck" depart="593.12" departLane="best" from="51202344#1" to="362102053"/>
    <trip id="truck183" type="truck_truck" depart="596.38" departLane="best" from="209439858" to="-362101723#0"/>
    <trip id="truck184" type="truck_truck" depart="599.64" departLane="best" from="-306056601#2" to="-105885559#0"/>
    <trip id="truck185" type="truck_truck" depart="602.90" departLane="best" departSpeed="max" from="-362753644" to="105885528#4"/>
    <trip id="truck186" type="truck_truck" depart="606.16" departLane="best" from="51203068#0" to="-121662127#1"/>
    <trip id="truck187" type="truck_truck" depart="609.42" departLane="best" from="1022579542#1" to="137729208#4"/>
    <trip id="truck188" type="truck_truck" depart="612.68" departLane="best" from="108481303#0" to="-362103131"/>
    <trip id="truck189" type="truck_truck" depart="615.93" departLane="best" from="205706905" to="-104690505"/>
    <trip id="truck190" type="truck_truck" depart="619.19" departLane="best" departSpeed="max" from="-137729137" to="-95161509#2"/>
    <trip id="truck191" type="truck_truck" depart="622.45" departLane="best" from="-209439852" to="95141099#2"/>
    <trip id="truck192" type="truck_truck" depart="625.71" departLane="best" from="1111186756" to="-1103858919#3"/>
    <trip id="truck193" type="truck_truck" depart="628.97" departLane="best" from="-362753646" to="51202959#1"/>
    <trip id="truck194" type="truck_truck" depart="632.23" departLane="best" from="209439843#1" to="95161509#1"/>
    <trip id="truck195" type="truck_truck" depart="635.49" departLane="best" from="137729148#1" to="749618915"/>
    <trip id="truck196" type="truck_truck" depart="638.75" departLane="best" from="52171550#3" to="137729177"/>
    <trip id="truck197" type="truck_truck" depart="642.01" departLane="best" from="307820912#3" to="107833668#3"/>
    <trip id="truck198" type="truck_truck" depart="645.26" departLane="best" departSpeed="max" from="51202644" to="121169544#4"/>
    <trip id="truck199" type="truck_truck" depart="648.52" departLane="best" from="107824325#1" to="-362754063"/>
    <trip id="truck201" type="truck_truck" depart="655.04" departLane="best" from="362103306" to="108487142"/>
    <trip id="truck203" type="truck_truck" depart="661.56" departLane="best" from="-121662168#0" to="-51202070#8"/>
    <trip id="truck204" type="truck_truck" depart="664.82" departLane="best" from="-50885124#5" to="-51503411"/>
    <trip id="truck205" type="truck_truck" depart="668.08" departLane="best" from="121662124#1" to="-137729259#0"/>
    <trip id="truck206" type="truck_truck" depart="671.34" departLane="best" from="-362103127#0" to="209439858"/>
    <trip id="truck207" type="truck_truck" depart="674.59" departLane="best" departSpeed="max" from="306056601#0" to="-121169579#0"/>
    <trip id="truck208" type="truck_truck" depart="677.85" departLane="best" from="1037981904" to="-306056612"/>
    <trip id="truck209" type="truck_truck" depart="681.11" departLane="best" from="104690502#0" to="540229715"/>
    <trip id="truck210" type="truck_truck" depart="684.37" departLane="best" departSpeed="max" from="137729111#0" to="209446988#0"/>
    <trip id="truck211" type="truck_truck" depart="687.63" departLane="best" from="51203130#2" to="362103127#0"/>
    <trip id="truck212" type="truck_truck" depart="690.89" departLane="best" departSpeed="max" from="-684254226" to="362102190"/>
    <trip id="truck213" type="truck_truck" depart="694.15" departLane="best" from="51203070#0" to="891019869"/>
    <trip id="truck214" type="truck_truck" depart="697.41" departLane="best" from="121662164#0" to="137729148#0"/>
    <trip id="truck215" type="truck_truck" depart="700.67" departLane="best" from="105861361#0" to="-107833667"/>
    <trip id="truck216" type="truck_truck" depart="703.93" departLane="best" from="-540229708#3" to="205706906#1"/>
    <trip id="truck217" type="truck_truck" depart="707.18" departLane="best" from="105885557#4" to="-137729197#1"/>
    <trip id="truck218" type="truck_truck" depart="710.44" departLane="best" from="137729217#2" to="-107824325#0"/>
    <trip id="truck219" type="truck_truck" depart="713.70" departLane="best" from="-95141637#1" to="121662164#1"/>
    <trip id="truck220" type="truck_truck" depart="716.96" departLane="best" from="-105885543" to="137729308"/>
    <trip id="truck222" type="truck_truck" depart="723.48" departLane="best" from="-362101720" to="-51503414#0"/>
    <trip id="truck223" type="truck_truck" depart="726.74" departLane="best" from="362103130" to="-68663913#2"/>
    <trip id="truck224" type="truck_truck" depart="730.00" departLane="best" from="362103121" to="51202344#1"/>
    <trip id="truck225" type="truck_truck" depart="733.26" departLane="best" from="-362753652" to="-121662215"/>
    <trip id="truck226" type="truck_truck" depart="736.51" departLane="best" from="-105464615" to="1111186756"/>
    <trip id="truck227" type="truck_truck" depart="739.77" departLane="best" from="952053659" to="-52171551"/>
    <trip id="truck228" type="truck_truck" depart="743.03" departLane="best" from="171143135" to="362753644"/>
    <trip id="truck229" type="truck_truck" depart="746.29" departLane="best" departSpeed="max" from="203342432#0" to="362102190"/>
    <trip id="truck230" type="truck_truck" depart="749.55" departLane="best" from="736768977#1" to="-306056601#0"/>
    <trip id="truck231" type="truck_truck" depart="752.81" departLane="best" from="-105861361#0" to="-137729420#0"/>
    <trip id="truck232" type="truck_truck" depart="756.07" departLane="best" from="-137729197#6" to="137729509"/>
    <trip id="truck233" type="truck_truck" depart="759.33" departLane="best" departSpeed="max" from="136734931" to="-362101470"/>
    <trip id="truck234" type="truck_truck" depart="762.59" departLane="best" from="-171143089" to="137729155#2"/>
    <trip id="truck235" type="truck_truck" depart="765.84" departLane="best" from="362103119#0" to="-137729111#0"/>
    <trip id="truck236" type="truck_truck" depart="769.10" departLane="best" departSpeed="max" from="-137729137" to="-105885559#0"/>
    <trip id="truck237" type="truck_truck" depart="772.36" departLane="best" from="-52171548#0" to="205706905"/>
    <trip id="truck238" type="truck_truck" depart="775.62" departLane="best" from="749618914#1" to="-736768978#4"/>
    <trip id="truck239" type="truck_truck" depart="778.88" departLane="best" from="307820909" to="-121662164#0"/>
    <trip id="truck240" type="truck_truck" depart="782.14" departLane="best" from="209447002" to="137729208#1"/>
    <trip id="truck241" type="truck_truck" depart="785.40" departLane="best" from="-137729106#2" to="362103133#0"/>
    <trip id="truck242" type="truck_truck" depart="788.66" departLane="best" from="51203068#0" to="137729142#1"/>
    <trip id="truck243" type="truck_truck" depart="791.92" departLane="best" departSpeed="max" from="-137729167" to="95161504"/>
    <trip id="truck244" type="truck_truck" depart="795.17" departLane="best" from="362758251#0" to="-52171550#4"/>
    <trip id="truck245" type="truck_truck" depart="798.43" departLane="best" from="1103858919#1" to="-52171550#0"/>
    <trip id="truck246" type="truck_truck" depart="801.69" departLane="best" from="-137729127#1" to="95141103#0"/>
    <trip id="truck247" type="truck_truck" depart="804.95" departLane="best" from="137729358" to="51202343#4"/>
    <trip id="truck248" type="truck_truck" depart="808.21" departLane="best" departSpeed="max" from="306056601#0" to="1041474739#1"/>