<?xml version="1.0" encoding="UTF-8"?>

<!-- generated on 2022-11-17 16:51:55.829485 by osmWebWizard.py UNKNOWN
<configuration>
    <end value="3600"/>
    <fringe-factor value="5.0"/>
    <fringe-start-attributes value="departSpeed=&quot;max&quot;"/>
    <min-distance value="600.0"/>
    <net-file value="/home/joao/dir/2022-11-17-16-51-43/osm.net.xml"/>
    <period value="6.517825129214076"/>
    <route-file value="/home/joao/dir/2022-11-17-16-51-43/osm.bus.rou.xml"/>
    <trip-attributes value="departLane=&quot;best&quot;"/>
    <output-trip-file value="/home/joao/dir/2022-11-17-16-51-43/osm.bus.trips.xml"/>
    <prefix value="bus"/>
    <validate value="True"/>
    <vclass value="bus"/>
    <vehicle-class value="bus"/>
</configuration>
-->

<!-- generated on 2022-11-17 16:51:55 by Eclipse SUMO duarouter Version 1.14.0
<configuration xmlns:xsi="http://www.w3.org/2001/XMLSchema-instance" xsi:noNamespaceSchemaLocation="http://sumo.dlr.de/xsd/duarouterConfiguration.xsd">

    <input>
        <net-file value="/home/joao/dir/2022-11-17-16-51-43/osm.net.xml"/>
        <route-files value="/home/joao/dir/2022-11-17-16-51-43/osm.bus.trips.xml"/>
    </input>

    <output>
        <output-file value="/home/joao/dir/2022-11-17-16-51-43/osm.bus.trips.xml.tmp"/>
        <alternatives-output value="NUL"/>
        <write-trips value="true"/>
    </output>

    <time>
        <begin value="0"/>
        <end value="3600"/>
    </time>

    <report>
        <no-warnings value="true"/>
        <ignore-errors value="true"/>
        <no-step-log value="true"/>
    </report>

</configuration>
-->

<routes xmlns:xsi="http://www.w3.org/2001/XMLSchema-instance" xsi:noNamespaceSchemaLocation="http://sumo.dlr.de/xsd/routes_file.xsd">
    <vType id="bus_bus" vClass="bus"/>
    <trip id="bus0" type="bus_bus" depart="0.00" departLane="best" from="137729417#1" to="-105885559#0"/>
    <trip id="bus1" type="bus_bus" depart="6.52" departLane="best" from="-51202070#0" to="-362101722#1"/>
    <trip id="bus2" type="bus_bus" depart="13.04" departLane="best" from="362101722#0" to="203342432#1"/>
    <trip id="bus3" type="bus_bus" depart="19.55" departLane="best" from="52171550#4" to="-121662236"/>
    <trip id="bus4" type="bus_bus" depart="26.07" departLane="best" from="104690505" to="-107833668#0"/>
    <trip id="bus5" type="bus_bus" depart="32.59" departLane="best" from="-362101859" to="107833668#4"/>
    <trip id="bus6" type="bus_bus" depart="39.11" departLane="best" from="-105885540" to="-306056601#0"/>
    <trip id="bus7" type="bus_bus" depart="45.62" departLane="best" from="171143135" to="121169542#0"/>
    <trip id="bus8" type="bus_bus" depart="52.14" departLane="best" from="-362102053" to="137729106#1"/>
    <trip id="bus9" type="bus_bus" depart="58.66" departLane="best" departSpeed="max" from="-540229708#5" to="-152828493"/>
    <trip id="bus10" type="bus_bus" depart="65.18" departLane="best" from="749618910" to="-51503445"/>
    <trip id="bus11" type="bus_bus" depart="71.70" departLane="best" departSpeed="max" from="-136751798" to="-137729103#0"/>
    <trip id="bus12" type="bus_bus" depart="78.21" departLane="best" from="51203053#5" to="137729148#0"/>
    <trip id="bus13" type="bus_bus" depart="84.73" departLane="best" from="51202070#5" to="307820915#1"/>
    <trip id="bus14" type="bus_bus" depart="91.25" departLane="best" departSpeed="max" from="121169579#0" to="95141633#2"/>
    <trip id="bus15" type="bus_bus" depart="97.77" departLane="best" from="-749618914#1" to="121169551"/>
    <trip id="bus16" type="bus_bus" depart="104.29" departLane="best" departSpeed="max" from="51202644" to="137729197#6"/>
    <trip id="bus17" type="bus_bus" depart="110.80" departLane="best" departSpeed="max" from="51503411" to="121921782#1"/>
    <trip id="bus18" type="bus_bus" depart="117.32" departLane="best" departSpeed="max" from="306056601#0" to="-108526596#0"/>
    <trip id="bus19" type="bus_bus" depart="123.84" departLane="best" from="-362103123" to="-51202432#0"/>
    <trip id="bus20" type="bus_bus" depart="130.36" departLane="best" from="-137729106#1" to="-50885124#7"/>
    <trip id="bus21" type="bus_bus" depart="136.87" departLane="best" from="137729358" to="-540229708#0"/>
    <trip id="bus22" type="bus_bus" depart="143.39" departLane="best" from="-736768978#3" to="-307820912#0"/>
    <trip id="bus23" type="bus_bus" depart="149.91" departLane="best" from="-384435726#0" to="696015265#2"/>
    <trip id="bus24" type="bus_bus" depart="156.43" departLane="best" from="171143093" to="137729167"/>
    <trip id="bus25" type="bus_bus" depart="162.95" departLane="best" from="-205706905" to="307820915#0"/>
    <trip id="bus27" type="bus_bus" depart="175.98" departLane="best" departSpeed="max" from="121662236" to="209439843#1"/>
    <trip id="bus28" type="bus_bus" depart="182.50" departLane="best" from="51203053#0" to="362103133#2"/>
    <trip id="bus29" type="bus_bus" depart="189.02" departLane="best" from="-362103124" to="-107833668#0"/>
    <trip id="bus30" type="bus_bus" depart="195.53" departLane="best" from="-52171550#2" to="-362758252"/>
    <trip id="bus31" type="bus_bus" depart="202.05" departLane="best" from="-362101471#1" to="736768978#3"/>
    <trip id="bus32" type="bus_bus" depart="208.57" departLane="best" departSpeed="max" from="51503438" to="-51203130#3"/>
    <trip id="bus33" type="bus_bus" depart="215.09" departLane="best" from="540229758" to="105464620#1"/>
    <trip id="bus34" type="bus_bus" depart="221.61" departLane="best" from="-362758251#0" to="-362103134"/>
    <trip id="bus35" type="bus_bus" depart="228.12" departLane="best" from="136734849" to="-362758239"/>
    <trip id="bus36" type="bus_bus" depart="234.64" departLane="best" departSpeed="max" from="137729111#0" to="540229708#0"/>
    <trip id="bus37" type="bus_bus" depart="241.16" departLane="best" departSpeed="max" from="-95161504" to="-362101471#1"/>
    <trip id="bus38" type="bus_bus" depart="247.68" departLane="best" from="95166000#0" to="107833677#1"/>
    <trip id="bus39" type="bus_bus" depart="254.20" departLane="best" from="-136734874" to="-108526597"/>
    <trip id="bus40" type="bus_bus" depart="260.71" departLane="best" departSpeed="max" from="-137729137" to="137729208#1"/>
    <trip id="bus41" type="bus_bus" depart="267.23" departLane="best" departSpeed="max" from="-121169551" to="-68663946#0"/>
    <trip id="bus42" type="bus_bus" depart="273.75" departLane="best" from="95141099#2" to="51203069#1"/>
    <trip id="bus43" type="bus_bus" depart="280.27" departLane="best" departSpeed="max" from="209446996" to="1111186754#1"/>
    <trip id="bus45" type="bus_bus" depart="293.30" departLane="best" from="-137729142#0" to="1041474739#0"/>
    <trip id="bus46" type="bus_bus" depart="299.82" departLane="best" from="105885543" to="891019869"/>
    <trip id="bus47" type="bus_bus" depart="306.34" departLane="best" departSpeed="max" from="51503438" to="-362758249"/>
    <trip id="bus48" type="bus_bus" depart="312.86" departLane="best" from="108487140#1" to="-209439858"/>
    <trip id="bus49" type="bus_bus" depart="319.37" departLane="best" from="540229708#3" to="51503414#1"/>
    <trip id="bus52" type="bus_bus" depart="338.93" departLane="best" from="362103132" to="1111186756"/>
    <trip id="bus53" type="bus_bus" depart="345.44" departLane="best" from="-1022579542#0" to="-51503414#0"/>
    <trip id="bus54" type="bus_bus" depart="351.96" departLane="best" from="-105464615" to="68663921#2"/>
    <trip id="bus55" type="bus_bus" depart="358.48" departLane="best" departSpeed="max" from="51503438" to="51202344#1"/>
    <trip id="bus56" type="bus_bus" depart="365.00" departLane="best" from="-51203130#5" to="-121169544#0"/>
    <trip id="bus57" type="bus_bus" depart="371.52" departLane="best" departSpeed="max" from="51503438" to="736768979#0"/>
    <trip id="bus58" type="bus_bus" depart="378.03" departLane="best" departSpeed="max" from="-121921782#1" to="105885553#4"/>
    <trip id="bus59" type="bus_bus" depart="384.55" departLane="best" from="362103306" to="-137729197#3"/>
    <trip id="bus60" type="bus_bus" depart="391.07" departLane="best" from="107833666#0" to="121169551"/>
    <trip id="bus61" type="bus_bus" depart="397.59" departLane="best" from="-362758251#0" to="51503439#1"/>
    <trip id="bus62" type="bus_bus" depart="404.11" departLane="best" from="121662124#0" to="307820915#1"/>
    <trip id="bus63" type="bus_bus" depart="410.62" departLane="best" from="-307820912#0" to="-51203130#0"/>
    <trip id="bus64" type="bus_bus" depart="417.14" departLane="best" from="95161509#4" to="137729315#1"/>
    <trip id="bus65" type="bus_bus" depart="423.66" departLane="best" from="105885512" to="108487140#1"/>
    <trip id="bus66" type="bus_bus" depart="430.18" departLane="best" departSpeed="max" from="-137729167" to="-362101723#0"/>
    <trip id="bus67" type="bus_bus" depart="436.69" departLane="best" departSpeed="max" from="-540229708#5" to="137729104#2"/>
    <trip id="bus68" type="bus_bus" depart="443.21" departLane="best" from="-121662124#3" to="137729208#4"/>
    <trip id="bus69" type="bus_bus" depart="449.73" departLane="best" from="-362103124" to="540229715"/>
    <trip id="bus70" type="bus_bus" depart="456.25" departLane="best" from="51203130#5" to="-121662124#2"/>
    <trip id="bus71" type="bus_bus" depart="462.77" departLane="best" departSpeed="max" from="-362103133#2" to="137729509"/>
    <trip id="bus72" type="bus_bus" depart="469.28" departLane="best" from="68663921#4" to="121662234"/>
    <trip id="bus73" type="bus_bus" depart="475.80" departLane="best" from="105885559#1" to="362753646"/>
    <trip id="bus74" type="bus_bus" depart="482.32" departLane="best" from="-137729103#3" to="1022579542#0"/>
    <trip id="bus75" type="bus_bus" depart="488.84" departLane="best" from="359890082" to="171143067"/>
    <trip id="bus76" type="bus_bus" depart="495.35" departLane="best" from="95141634" to="-137729104#0"/>
    <trip id="bus77" type="bus_bus" depart="501.87" departLane="best" from="-95161509#1" to="-52171549"/>
    <trip id="bus78" type="bus_bus" depart="508.39" departLane="best" departSpeed="max" from="51503411" to="-362103306"/>
    <trip id="bus79" type="bus_bus" depart="514.91" departLane="best" from="-209446999" to="104690506"/>
    <trip id="bus80" type="bus_bus" depart="521.43" departLane="best" from="104690505" to="-50885124#7"/>
    <trip id="bus81" type="bus_bus" depart="527.94" departLane="best" from="-362753646" to="68663913#0"/>
    <trip id="bus82" type="bus_bus" depart="534.46" departLane="best" departSpeed="max" from="105885524" to="51203069#1"/>
    <trip id="bus83" type="bus_bus" depart="540.98" departLane="best" from="121662207" to="-1103858919#3"/>
    <trip id="bus84" type="bus_bus" depart="547.50" departLane="best" from="952053659" to="51202391#1"/>
    <trip id="bus85" type="bus_bus" depart="554.02" departLane="best" from="95141099#0" to="68663913#3"/>
    <trip id="bus86" type="bus_bus" depart="560.53" departLane="best" from="51203053#7" to="-205706905"/>
    <trip id="bus87" type="bus_bus" depart="567.05" departLane="best" departSpeed="max" from="107833669" to="-307820912#5"/>
    <trip id="bus88" type="bus_bus" depart="573.57" departLane="best" from="-95161506#1" to="-121169544#0"/>
    <trip id="bus89" type="bus_bus" depart="580.09" departLane="best" from="-81152478" to="95161506#0"/>
    <trip id="bus90" type="bus_bus" depart="586.60" departLane="best" from="-362758251#0" to="362753644"/>
    <trip id="bus91" type="bus_bus" depart="593.12" departLane="best" from="105885547" to="-95161506#1"/>
    <trip id="bus92" type="bus_bus" depart="599.64" departLane="best" from="749618910" to="95166000#2"/>
    <trip id="bus93" type="bus_bus" depart="606.16" departLane="best" departSpeed="max" from="121662236" to="306056617"/>
    <trip id="bus94" type="bus_bus" depart="612.68" departLane="best" from="-137729334" to="-51202828"/>
    <trip id="bus95" type="bus_bus" depart="619.19" departLane="best" from="940617673" to="136734874"/>
    <trip id="bus96" type="bus_bus" depart="625.71" departLane="best" from="121662124#3" to="362101723#1"/>
    <trip id="bus97" type="bus_bus" depart="632.23" departLane="best" from="-121169535#0" to="137612525"/>
    <trip id="bus98" type="bus_bus" depart="638.75" departLane="best" from="108526597" to="51203053#1"/>
    <trip id="bus99" type="bus_bus" depart="645.26" departLane="best" from="-137729395" to="95141103#0"/>
    <trip id="bus100" type="bus_bus" depart="651.78" departLane="best" from="-121662207" to="-209446996"/>
    <trip id="bus101" type="bus_bus" depart="658.30" departLane="best" from="137729148#0" to="171143107"/>
    <trip id="bus102" type="bus_bus" depart="664.82" departLane="best" from="-362103130" to="-137729142#0"/>
    <trip id="bus103" type="bus_bus" depart="671.34" departLane="best" from="52171550#2" to="-362103133#0"/>
    <trip id="bus104" type="bus_bus" depart="677.85" departLane="best" from="137729148#0" to="137729198#0"/>
    <trip id="bus105" type="bus_bus" depart="684.37" departLane="best" from="104690500" to="136751798"/>
    <trip id="bus106" type="bus_bus" depart="690.89" departLane="best" from="-307820912#4" to="214847748#1"/>
    <trip id="bus107" type="bus_bus" depart="697.41" departLane="best" departSpeed="max" from="-362103133#2" to="-736768978#3"/>
    <trip id="bus108" type="bus_bus" depart="703.93" departLane="best" from="209439856" to="-51202841#0"/>
    <trip id="bus109" type="bus_bus" depart="710.44" departLane="best" from="-52171550#3" to="362102100"/>
    <trip id="bus110" type="bus_bus" depart="716.96" departLane="best" from="-121662127#0" to="105464620#0"/>
    <trip id="bus111" type="bus_bus" depart="723.48" departLane="best" from="95166000#1" to="95166000#2"/>
    <trip id="bus112" type="bus_bus" depart="730.00" departLane="best" from="-121662127#1" to="-307820912#4"/>
    <trip id="bus113" type="bus_bus" depart="736.51" departLane="best" from="-362758251#0" to="68663924"/>
    <trip id="bus114" type="bus_bus" depart="743.03" departLane="best" from="51503439#1" to="52171550#4"/>
    <trip id="bus115" type="bus_bus" depart="749.55" departLane="best" from="-736768978#3" to="-171142742#2"/>
    <trip id="bus116" type="bus_bus" depart="756.07" departLane="best" departSpeed="max" from="51202828" to="209446999"/>
    <trip id="bus117" type="bus_bus" depart="762.59" departLane="best" departSpeed="max" from="137729208#0" to="95161509#0"/>
    <trip id="bus118" type="bus_bus" depart="769.10" departLane="best" departSpeed="max" from="203342432#0" to="-105885524"/>
    <trip id="bus119" type="bus_bus" depart="775.62" departLane="best" from="51202343#6" to="-51202841#0"/>
    <trip id="bus120" type="bus_bus" depart="782.14" departLane="best" from="205706908" to="696015268"/>
    <trip id="bus121" type="bus_bus" depart="788.66" departLane="best" departSpeed="max" from="-137729137" to="121169551"/>
    <trip id="bus122" type="bus_bus" depart="795.17" departLane="best" from="-50885124#5" to="137729155#0"/>
    <trip id="bus123" type="bus_bus" depart="801.69" departLane="best" from="307820912#1" to="-306056601#2"/>
    <trip id="bus124" type="bus_bus" depart="808.21" departLane="best" from="137729348" to="-362758250"/>
    <trip id="bus125" type="bus_bus" depart="814.73" departLane="best" departSpeed="max" from="107833669" to="540229715"/>
    <trip id="bus126" type="bus_bus" depart="821.25" departLane="best" from="51203053#4" to="-136734931"/>
    <trip id="bus127" type="bus_bus" depart="827.76" departLane="best" from="104690507#1" to="-50885124#5"/>
    <trip id="bus128" type="bus_bus" depart="834.28" departLane="best" departSpeed="max" from="-1041474739#1" to="362103132"/>
    <trip id="bus129" type="bus_bus" depart="840.80" departLane="best" from="137729409#0" to="-362758238#0"/>
    <trip id="bus130" type="bus_bus" depart="847.32" departLane="best" from="362101859" to="121169551"/>
    <trip id="bus131" type="bus_bus" depart="853.84" departLane="best" from="105464620#0" to="-105885524"/>
    <trip id="bus132" type="bus_bus" depart="860.35" departLane="best" from="-121662136" to="52171550#7"/>
    <trip id="bus133" type="bus_bus" depart="866.87" departLane="best" departSpeed="max" from="52986097#0" to="121169542#1"/>
    <trip id="bus134" type="bus_bus" depart="873.39" departLane="best" departSpeed="max" from="51202828" to="136751798"/>
    <trip id="bus135" type="bus_bus" depart="879.91" departLane="best" from="-51503412#0" to="540229708#3"/>
    <trip id="bus136" type="bus_bus" depart="886.42" departLane="best" from="50885124#6" to="51203069#0"/>
    <trip id="bus137" type="bus_bus" depart="892.94" departLane="best" departSpeed="max" from="52986063" to="-307820912#0"/>
    <trip id="bus138" type="bus_bus" depart="899.46" departLane="best" from="-362753646" to="-137729106#0"/>
    <trip id="bus139" type="bus_bus" depart="905.98" departLane="best" from="362758238#0" to="52171550#7"/>
    <trip id="bus140" type="bus_bus" depart="912.50" departLane="best" from="-95161515#0" to="137729198#0-AddedOffRampEdge"/>
    <trip id="bus141" type="bus_bus" depart="919.01" departLane="best" from="-137729334" to="68663921#2"/>
    <trip id="bus142" type="bus_bus" depart="925.53" departLane="best" from="51503412#0" to="95141635"/>
    <trip id="bus143" type="bus_bus" depart="932.05" departLane="best" from="51202154" to="52171550#6"/>
    <trip id="bus144" type="bus_bus" depart="938.57" departLane="best" from="-105885528#4" to="360582696"/>
    <trip id="bus145" type="bus_bus" depart="945.08" departLane="best" from="-52986097#2" to="68663921#4"/>
    <trip id="bus146" type="bus_bus" depart="951.60" departLane="best" from="51202154" to="-362758252"/>
    <trip id="bus148" type="bus_bus" depart="964.64" departLane="best" from="-362102190" to="51202070#0"/>
    <trip id="bus149" type="bus_bus" depart="971.16" departLane="best" from="105885554" to="-51202967#0"/>
    <trip id="bus150" type="bus_bus" depart="977.67" departLane="best" from="50885124#5" to="-362102052"/>
    <trip id="bus151" type="bus_bus" depart="984.19" departLane="best" from="-105885528#3" to="-209447001#3"/>
    <trip id="bus152" type="bus_bus" depart="990.71" departLane="best" departSpeed="max" from="-52986096#3" to="51203130#1"/>
    <trip id="bus153" type="bus_bus" depart="997.23" departLane="best" from="891019869" to="-51202070#0"/>
    <trip id="bus154" type="bus_bus" depart="1003.75" departLane="best" from="137729443#0" to="-736768979#1"/>
    <trip id="bus155" type="bus_bus" depart="1010.26" departLane="best" from="95141631#7" to="1111186753"/>
    <trip id="bus156" type="bus_bus" depart="1016.78" departLane="best" departSpeed="max" from="68663946#0" to="-137729111#0"/>
    <trip id="bus157" type="bus_bus" depart="1023.30" departLane="best" from="95141099#1" to="-209439858"/>
    <trip id="bus158" type="bus_bus" depart="1029.82" departLane="best" departSpeed="max" from="840849233" to="-362758251#0"/>
    <trip id="bus159" type="bus_bus" depart="1036.33" departLane="best" departSpeed="max" from="-137729137" to="1041474739#0"/>
    <trip id="bus160" type="bus_bus" depart="1042.85" departLane="best" from="359890082" to="-51203130#2"/>
    <trip id="bus161" type="bus_bus" depart="1049.37" departLane="best" from="-95141103#1" to="121921782#1"/>
    <trip id="bus162" type="bus_bus" depart="1055.89" departLane="best" from="-362753661" to="209447004"/>
    <trip id="bus163" type="bus_bus" depart="1062.41" departLane="best" from="-1022579542#1" to="68663913#2"/>
    <trip id="bus164" type="bus_bus" depart="1068.92" departLane="best" from="121662114" to="307820909"/>
    <trip id="bus165" type="bus_bus" depart="1075.44" departLane="best" from="362102052" to="171142738"/>
    <trip id="bus166" type="bus_bus" depart="1081.96" departLane="best" from="-696015267" to="-121662124#1"/>
    <trip id="bus168" type="bus_bus" depart="1094.99" departLane="best" from="-52171549" to="51202959#1"/>
    <trip id="bus169" type="bus_bus" depart="1101.51" departLane="best" from="307820912#4" to="-51202841#1"/>
    <trip id="bus170" type="bus_bus" depart="1108.03" departLane="best" from="-51503412#1" to="-840849233"/>
    <trip id="bus171" type="bus_bus" depart="1114.55" departLane="best" from="-95161509#1" to="-51202828"/>
    <trip id="bus172" type="bus_bus" depart="1121.07" departLane="best" from="-137729208#2" to="-95141637#2"/>
    <trip id="bus173" type="bus_bus" depart="1127.58" departLane="best" departSpeed="max" from="52986097#0" to="137729197#0"/>
    <trip id="bus174" type="bus_bus" depart="1134.10" departLane="best" from="-51203069#1" to="121169544#4"/>
    <trip id="bus175" type="bus_bus" depart="1140.62" departLane="best" from="105464620#2" to="136751798"/>
    <trip id="bus176" type="bus_bus" depart="1147.14" departLane="best" departSpeed="max" from="203342432#0" to="105861359"/>
    <trip id="bus177" type="bus_bus" depart="1153.66" departLane="best" departSpeed="max" from="105885524" to="-307820912#5"/>
    <trip id="bus178" type="bus_bus" depart="1160.17" departLane="best" from="107824325#0" to="540229708#4"/>
    <trip id="bus179" type="bus_bus" depart="1166.69" departLane="best" from="50885124#6" to="-205706907"/>
    <trip id="bus180" type="bus_bus" depart="1173.21" departLane="best" from="-121921782#0" to="108487139#2"/>
    <trip id="bus181" type="bus_bus" depart="1179.73" departLane="best" from="137729334" to="-51503438"/>
    <trip id="bus182" type="bus_bus" depart="1186.24" departLane="best" from="51202344#1" to="362102053"/>
    <trip id="bus183" type="bus_bus" depart="1192.76" departLane="best" from="209439858" to="-362101723#0"/>
    <trip id="bus184" type="bus_bus" depart="1199.28" departLane="best" from="-306056601#2" to="-105885559#0"/>
    <trip id="bus185" type="bus_bus" depart="1205.80" departLane="best" departSpeed="max" from="-362753644" to="105885528#4"/>
    <trip id="bus186" type="bus_bus" depart="1212.32" departLane="best" from="51203068#0" to="-121662127#1"/>
    <trip id="bus187" type="bus_bus" depart="1218.83" departLane="best" from="1022579542#1" to="137729208#4"/>
    <trip id="bus188" type="bus_bus" depart="1225.35" departLane="best" from="108481303#0" to="-362103131"/>
    <trip id="bus189" type="bus_bus" depart="1231.87" departLane="best" from="205706905" to="-104690505"/>
    <trip id="bus190" type="bus_bus" depart="1238.39" departLane="best" departSpeed="max" from="-137729137" to="-95161509#2"/>
    <trip id="bus191" type="bus_bus" depart="1244.90" departLane="best" from="-209439852" to="95141099#2"/>
    <trip id="bus192" type="bus_bus" depart="1251.42" departLane="best" from="1111186756" to="-1103858919#3"/>
    <trip id="bus193" type="bus_bus" depart="1257.94" departLane="best" from="-362753646" to="51202959#1"/>
    <trip id="bus194" type="bus_bus" depart="1264.46" departLane="best" from="209439843#1" to="95161509#1"/>
    <trip id="bus195" type="bus_bus" depart="1270.98" departLane="best" from="137729148#1" to="749618915"/>
    <trip id="bus196" type="bus_bus" depart="1277.49" departLane="best" from="52171550#3" to="137729177"/>
    <trip id="bus197" type="bus_bus" depart="1284.01" departLane="best" from="307820912#3" to="107833668#3"/>
    <trip id="bus198" type="bus_bus" depart="1290.53" departLane="best" departSpeed="max" from="51202644" to="121169544#4"/>
    <trip id="bus199" type="bus_bus" depart="1297.05" departLane="best" from="107824325#1" to="-362754063"/>
    <trip id="bus201" type="bus_bus" depart="1310.08" departLane="best" from="362103306" to="108487142"/>
    <trip id="bus203" type="bus_bus" depart="1323.12" departLane="best" from="-121662168#0" to="-51202070#8"/>
    <trip id="bus204" type="bus_bus" depart="1329.64" departLane="best" from="-50885124#5" to="-51503411"/>
    <trip id="bus205" type="bus_bus" depart="1336.15" departLane="best" from="121662124#1" to="-137729259#0"/>
    <trip id="bus206" type="bus_bus" depart="1342.67" departLane="best" from="-362103127#0" to="209439858"/>
    <trip id="bus207" type="bus_bus" depart="1349.19" departLane="best" departSpeed="max" from="306056601#0" to="-121169579#0"/>
    <trip id="bus208" type="bus_bus" depart="1355.71" departLane="best" from="1037981904" to="-306056612"/>
    <trip id="bus209" type="bus_bus" depart="1362.23" departLane="best" from="104690502#0" to="540229715"/>
    <trip id="bus210" type="bus_bus" depart="1368.74" departLane="best" departSpeed="max" from="137729111#0" to="209446988#0"/>
    <trip id="bus211" type="bus_bus" depart="1375.26" departLane="best" from="51203130#2" to="362103127#0"/>
    <trip id="bus212" type="bus_bus" depart="1381.78" departLane="best" departSpeed="max" from="-684254226" to="362102190"/>
    <trip id="bus213" type="bus_bus" depart="1388.30" departLane="best" from="51203070#0" to="891019869"/>
    <trip id="bus214" type="bus_bus" depart="1394.81" departLane="best" from="121662164#0" to="137729148#0"/>
    <trip id="bus215" type="bus_bus" depart="1401.33" departLane="best" from="105861361#0" to="-107833667"/>
    <trip id="bus216" type="bus_bus" depart="1407.85" departLane="best" from="-540229708#3" to="205706906#1"/>
    <trip id="bus217" type="bus_bus" depart="1414.37" departLane="best" from="105885557#4" to="-137729197#1"/>
    <trip id="bus218" type="bus_bus" depart="1420.89" departLane="best" from="137729217#2" to="-107824325#0"/>
    <trip id="bus219" type="bus_bus" depart="1427.40" departLane="best" from="-95141637#1" to="121662164#1"/>
    <trip id="bus220" type="bus_bus" depart="1433.92" departLane="best" from="-105885543" to="137729308"/>
    <trip id="bus222" type="bus_bus" depart="1446.96" departLane="best" from="-362101720" to="-51503414#0"/>
    <trip id="bus223" type="bus_bus" depart="1453.48" departLane="best" from="362103130" to="-68663913#2"/>
    <trip id="bus224" type="bus_bus" depart="1459.99" departLane="best" from="362103121" to="51202344#1"/>
    <trip id="bus225" type="bus_bus" depart="1466.51" departLane="best" from="-362753652" to="-121662215"/>
    <trip id="bus226" type="bus_bus" depart="1473.03" departLane="best" from="-105464615" to="1111186756"/>
    <trip id="bus227" type="bus_bus" depart="1479.55" departLane="best" from="952053659" to="-52171551"/>
    <trip id="bus228" type="bus_bus" depart="1486.06" departLane="best" from="171143135" to="362753644"/>
    <trip id="bus229" type="bus_bus" depart="1492.58" departLane="best" departSpeed="max" from="203342432#0" to="362102190"/>
    <trip id="bus230" type="bus_bus" depart="1499.10" departLane="best" from="736768977#1" to="-306056601#0"/>
    <trip id="bus231" type="bus_bus" depart="1505.62" departLane="best" from="-105861361#0" to="-137729420#0"/>
    <trip id="bus232" type="bus_bus" depart="1512.14" departLane="best" from="-137729197#6" to="137729509"/>
    <trip id="bus233" type="bus_bus" depart="1518.65" departLane="best" departSpeed="max" from="136734931" to="-362101470"/>
    <trip id="bus234" type="bus_bus" depart="1525.17" departLane="best" from="-171143089" to="137729155#2"/>
    <trip id="bus235" type="bus_bus" depart="1531.69" departLane="best" from="362103119#0" to="-137729111#0"/>
    <trip id="bus236" type="bus_bus" depart="1538.21" departLane="best" departSpeed="max" from="-137729137" to="-105885559#0"/>
    <trip id="bus237" type="bus_bus" depart="1544.72" departLane="best" from="-52171548#0" to="205706905"/>
    <trip id="bus238" type="bus_bus" depart="1551.24" departLane="best" from="749618914#1" to="-736768978#4"/>
    <trip id="bus239" type="bus_bus" depart="1557.76" departLane="best" from="307820909" to="-121662164#0"/>
    <trip id="bus240" type="bus_bus" depart="1564.28" departLane="best" from="209447002" to="137729208#1"/>
    <trip id="bus241" type="bus_bus" depart="1570.80" departLane="best" from="-137729106#2" to="362103133#0"/>
    <trip id="bus242" type="bus_bus" depart="1577.31" departLane="best" from="51203068#0" to="137729142#1"/>
    <trip id="bus243" type="bus_bus" depart="1583.83" departLane="best" departSpeed="max" from="-137729167" to="95161504"/>
    <trip id="bus244" type="bus_bus" depart="1590.35" departLane="best" from="362758251#0" to="-52171550#4"/>
    <trip id="bus245" type="bus_bus" depart="1596.87" departLane="best" from="1103858919#1" to="-52171550#0"/>
    <trip id="bus246" type="bus_bus" depart="1603.38" departLane="best" from="-137729127#1" to="95141103#0"/>
    <trip id="bus247" type="bus_bus" depart="1609.90" departLane="best" from="137729358" to="51202343#4"/>
    <trip id="bus248" type="bus_bus" depart="1616.42" departLane="best" departSpeed="max" from="306056601#0" to="1041474739#1"/>
    <trip id="bus249" type="bus_bus" depart="1622.94" departLane="best" from="362101720" to="95141631#4"/>
    <trip id="bus250" type="bus_bus" depart="1629.46" departLane="best" from="121662114" to="105885553#1"/>
    <trip id="bus251" type="bus_bus" depart="1635.97" departLane="best" from="-422954289" to="51203053#0"/>
    <trip id="bus252" type="bus_bus" depart="1642.49" departLane="best" departSpeed="max" from="51202644" to="-121662236"/>
    <trip id="bus253" type="bus_bus" depart="1649.01" departLane="best" from="105885557#1-AddedOnRampEdge" to="137729167"/>
    <trip id="bus254" type="bus_bus" depart="1655.53" departLane="best" from="-81152478" to="-107833667"/>
    <trip id="bus255" type="bus_bus" depart="1662.05" departLane="best" from="51203068#1" to="-209446996"/>
    <trip id="bus256" type="bus_bus" depart="1668.56" departLane="best" from="-362101721#0" to="362758238#1"/>
    <trip id="bus257" type="bus_bus" depart="1675.08" departLane="best" departSpeed="max" from="-540229708#5" to="52171550#5"/>
    <trip id="bus258" type="bus_bus" depart="1681.60" departLane="best" from="-121921782#0" to="307820910"/>
    <trip id="bus259" type="bus_bus" depart="1688.12" departLane="best" departSpeed="max" from="107833669" to="362103119#2"/>
    <trip id="bus260" type="bus_bus" depart="1694.63" departLane="best" from="209447002" to="137729308"/>