<?xml version="1.0" encoding="UTF-8"?>

<!-- generated on 2022-11-17 16:51:56.253069 by osmWebWizard.py UNKNOWN
<configuration>
    <end value="3600"/>
    <fringe-factor value="2.0"/>
    <fringe-start-attributes value="departSpeed=&quot;max&quot;"/>
    <max-distance value="1200.0"/>
    <net-file value="/home/joao/dir/2022-11-17-16-51-43/osm.net.xml"/>
    <period value="6.510563135498783"/>
    <route-file value="/home/joao/dir/2022-11-17-16-51-43/osm.motorcycle.rou.xml"/>
    <trip-attributes value="departLane=&quot;best&quot;"/>
    <output-trip-file value="/home/joao/dir/2022-11-17-16-51-43/osm.motorcycle.trips.xml"/>
    <prefix value="moto"/>
    <validate value="True"/>
    <vclass value="motorcycle"/>
    <vehicle-class value="motorcycle"/>
</configuration>
-->

<!-- generated on 2022-11-17 16:51:56 by Eclipse SUMO duarouter Version 1.14.0
<configuration xmlns:xsi="http://www.w3.org/2001/XMLSchema-instance" xsi:noNamespaceSchemaLocation="http://sumo.dlr.de/xsd/duarouterConfiguration.xsd">

    <input>
        <net-file value="/home/joao/dir/2022-11-17-16-51-43/osm.net.xml"/>
        <route-files value="/home/joao/dir/2022-11-17-16-51-43/osm.motorcycle.trips.xml"/>
    </input>

    <output>
        <output-file value="/home/joao/dir/2022-11-17-16-51-43/osm.motorcycle.trips.xml.tmp"/>
        <alternatives-output value="NUL"/>
        <write-trips value="true"/>
    </output>

    <time>
        <begin value="0"/>
        <end value="3600"/>
    </time>

    <report>
        <no-warnings value="true"/>
        <ignore-errors value="true"/>
        <no-step-log value="true"/>
    </report>

</configuration>
-->

<routes xmlns:xsi="http://www.w3.org/2001/XMLSchema-instance" xsi:noNamespaceSchemaLocation="http://sumo.dlr.de/xsd/routes_file.xsd">
    <vType id="moto_motorcycle" vClass="motorcycle"/>
    <trip id="moto0" type="moto_motorcycle" depart="0.00" departLane="best" from="171142742#2" to="-105885559#1"/>
    <trip id="moto1" type="moto_motorcycle" depart="6.51" departLane="best" from="-362103121" to="108487140#1"/>
    <trip id="moto2" type="moto_motorcycle" depart="13.02" departLane="best" from="-105885554" to="-307820912#6"/>
    <trip id="moto3" type="moto_motorcycle" depart="19.53" departLane="best" from="-362103123" to="137729142#2"/>
    <trip id="moto4" type="moto_motorcycle" depart="26.04" departLane="best" from="51202070#5" to="-104690505"/>
    <trip id="moto5" type="moto_motorcycle" depart="32.55" departLane="best" from="-540229751" to="-205706907"/>
    <trip id="moto6" type="moto_motorcycle" depart="39.06" departLane="best" from="-137729104#1" to="-137729106#1"/>
    <trip id="moto7" type="moto_motorcycle" depart="45.57" departLane="best" from="51203053#2" to="137729197#1"/>
    <trip id="moto8" type="moto_motorcycle" depart="52.08" departLane="best" from="-95141099#2" to="121662134"/>
    <trip id="moto9" type="moto_motorcycle" depart="58.60" departLane="best" from="307820912#1" to="-1103858919#1"/>
    <trip id="moto10" type="moto_motorcycle" depart="65.11" departLane="best" from="-121662234" to="-362103130"/>
    <trip id="moto11" type="moto_motorcycle" depart="71.62" departLane="best" from="-137729127#1" to="-51202070#5"/>
    <trip id="moto12" type="moto_motorcycle" depart="78.13" departLane="best" from="-749618903" to="-362101722#1"/>
    <trip id="moto13" type="moto_motorcycle" depart="84.64" departLane="best" from="51503439#0" to="-51503412#1"/>
    <trip id="moto14" type="moto_motorcycle" depart="91.15" departLane="best" from="547492325#2" to="105885528#4"/>
    <trip id="moto15" type="moto_motorcycle" depart="97.66" departLane="best" from="-50885124#2" to="-362754053#0"/>
    <trip id="moto16" type="moto_motorcycle" depart="104.17" departLane="best" from="137729142#1" to="540229708#1"/>
    <trip id="moto17" type="moto_motorcycle" depart="110.68" departLane="best" from="-137729155#3" to="137729315#0"/>
    <trip id="moto18" type="moto_motorcycle" depart="117.19" departLane="best" from="50885124#1" to="1041474739#1"/>
    <trip id="moto19" type="moto_motorcycle" depart="123.70" departLane="best" departSpeed="max" from="-104690506" to="359890082"/>
    <trip id="moto20" type="moto_motorcycle" depart="130.21" departLane="best" from="-50885124#4" to="137729409#0"/>
    <trip id="moto21" type="moto_motorcycle" depart="136.72" departLane="best" departSpeed="max" from="-137729167" to="104691254"/>
    <trip id="moto22" type="moto_motorcycle" depart="143.23" departLane="best" from="105885548" to="891019868"/>
    <trip id="moto23" type="moto_motorcycle" depart="149.74" departLane="best" from="108526597" to="-209447001#2"/>
    <trip id="moto24" type="moto_motorcycle" depart="156.25" departLane="best" from="547492325#0" to="51503412#1"/>
    <trip id="moto25" type="moto_motorcycle" depart="162.76" departLane="best" from="362758238#0" to="121169531#2"/>
    <trip id="moto26" type="moto_motorcycle" depart="169.27" departLane="best" from="-105885528#4" to="68663922"/>
    <trip id="moto27" type="moto_motorcycle" depart="175.79" departLane="best" from="-51503412#0" to="-121169544#4"/>
    <trip id="moto28" type="moto_motorcycle" depart="182.30" departLane="best" from="-136734849" to="107833666#0"/>
    <trip id="moto29" type="moto_motorcycle" depart="188.81" departLane="best" from="-121662134" to="362103130"/>
    <trip id="moto30" type="moto_motorcycle" depart="195.32" departLane="best" from="-50885124#2" to="51503439#0"/>
    <trip id="moto31" type="moto_motorcycle" depart="201.83" departLane="best" from="105464616" to="-362101723#4"/>
    <trip id="moto32" type="moto_motorcycle" depart="208.34" departLane="best" from="121662124#2" to="362101721#0"/>
    <trip id="moto33" type="moto_motorcycle" depart="214.85" departLane="best" from="-362101720" to="-51503411"/>
    <trip id="moto34" type="moto_motorcycle" depart="221.36" departLane="best" from="95161515#0" to="171142738"/>
    <trip id="moto35" type="moto_motorcycle" depart="227.87" departLane="best" from="105885518" to="1111186748"/>
    <trip id="moto36" type="moto_motorcycle" depart="234.38" departLane="best" from="-137729208#3" to="-362103123"/>
    <trip id="moto37" type="moto_motorcycle" depart="240.89" departLane="best" from="-362103132" to="-362102613"/>
    <trip id="moto38" type="moto_motorcycle" depart="247.40" departLane="best" from="-362103130" to="540229751"/>
    <trip id="moto39" type="moto_motorcycle" depart="253.91" departLane="best" from="68663946#1" to="136751798"/>
    <trip id="moto40" type="moto_motorcycle" depart="260.42" departLane="best" from="105464620#0" to="105885550#1"/>
    <trip id="moto41" type="moto_motorcycle" depart="266.93" departLane="best" from="95141637#1" to="-137729106#3"/>
    <trip id="moto42" type="moto_motorcycle" depart="273.44" departLane="best" from="51203130#2" to="-362754056"/>
    <trip id="moto43" type="moto_motorcycle" depart="279.95" departLane="best" from="-307820912#2" to="105861361#1"/>
    <trip id="moto44" type="moto_motorcycle" depart="286.46" departLane="best" from="105464615" to="-51202070#6"/>
    <trip id="moto45" type="moto_motorcycle" depart="292.98" departLane="best" from="-362754059" to="68663913#4"/>
    <trip id="moto46" type="moto_motorcycle" depart="299.49" departLane="best" from="105885528#1" to="51203070#0"/>
    <trip id="moto47" type="moto_motorcycle" depart="306.00" departLane="best" from="121662207" to="-121169535#0"/>
    <trip id="moto48" type="moto_motorcycle" depart="312.51" departLane="best" from="952053659" to="51202429#1"/>
    <trip id="moto49" type="moto_motorcycle" depart="319.02" departLane="best" from="95141103#0" to="68663921#2"/>
    <trip id="moto50" type="moto_motorcycle" depart="325.53" departLane="best" from="51203053#4" to="-209446984"/>
    <trip id="moto51" type="moto_motorcycle" depart="332.04" departLane="best" from="107833672#0" to="-362102052"/>
    <trip id="moto52" type="moto_motorcycle" depart="338.55" departLane="best" from="-95141099#2" to="95161504"/>
    <trip id="moto53" type="moto_motorcycle" depart="345.06" departLane="best" from="105885550#1" to="1041474740"/>
    <trip id="moto54" type="moto_motorcycle" depart="351.57" departLane="best" departSpeed="max" from="121662236" to="309183210"/>
    <trip id="moto55" type="moto_motorcycle" depart="358.08" departLane="best" from="-203342432#1" to="-51202967#0"/>
    <trip id="moto56" type="moto_motorcycle" depart="364.59" departLane="best" from="95141103#0" to="137729106#2"/>
    <trip id="moto57" type="moto_motorcycle" depart="371.10" departLane="best" from="121662127#1" to="362103119#3"/>
    <trip id="moto58" type="moto_motorcycle" depart="377.61" departLane="best" from="1103858919#0" to="51203053#3"/>
    <trip id="moto59" type="moto_motorcycle" depart="384.12" departLane="best" from="-205706908" to="95141099#3"/>
    <trip id="moto60" type="moto_motorcycle" depart="390.63" departLane="best" from="-121662234" to="-306056601#0"/>
    <trip id="moto61" type="moto_motorcycle" depart="397.14" departLane="best" from="-362103196" to="-137729197#6"/>
    <trip id="moto63" type="moto_motorcycle" depart="410.17" departLane="best" from="104690507#2" to="137729127#0"/>
    <trip id="moto64" type="moto_motorcycle" depart="416.68" departLane="best" from="121169535#3" to="696015266"/>
    <trip id="moto65" type="moto_motorcycle" depart="423.19" departLane="best" departSpeed="max" from="209446996" to="-51203068#1"/>
    <trip id="moto66" type="moto_motorcycle" depart="429.70" departLane="best" from="-52171550#3" to="362103123"/>
    <trip id="moto67" type="moto_motorcycle" depart="436.21" departLane="best" from="-121662164#1" to="105885528#4"/>
    <trip id="moto68" type="moto_motorcycle" depart="442.72" departLane="best" from="95166000#1" to="95166000#1"/>
    <trip id="moto69" type="moto_motorcycle" depart="449.23" departLane="best" from="-121662168#0" to="-362101859"/>
    <trip id="moto70" type="moto_motorcycle" depart="455.74" departLane="best" from="52171548#1" to="52171550#1"/>
    <trip id="moto71" type="moto_motorcycle" depart="462.25" departLane="best" from="-736768979#1" to="-205706909"/>
    <trip id="moto72" type="moto_motorcycle" depart="468.76" departLane="best" from="205706909" to="-105464615"/>
    <trip id="moto73" type="moto_motorcycle" depart="475.27" departLane="best" from="51202343#3" to="-51203068#0"/>
    <trip id="moto74" type="moto_motorcycle" depart="481.78" departLane="best" from="209439856" to="736768977#1"/>
    <trip id="moto75" type="moto_motorcycle" depart="488.29" departLane="best" from="-137729155#0" to="121662164#0"/>
    <trip id="moto76" type="moto_motorcycle" depart="494.80" departLane="best" from="309183433" to="-362101471#1"/>
    <trip id="moto77" type="moto_motorcycle" depart="501.31" departLane="best" from="137729443#1" to="-422954289"/>
    <trip id="moto78" type="moto_motorcycle" depart="507.82" departLane="best" from="105464620#0" to="-51202070#4"/>
    <trip id="moto79" type="moto_motorcycle" depart="514.33" departLane="best" departSpeed="max" from="-1041474739#1" to="362753644"/>
    <trip id="moto80" type="moto_motorcycle" depart="520.85" departLane="best" from="171142738" to="-384435726#0"/>
    <trip id="moto81" type="moto_motorcycle" depart="527.36" departLane="best" from="362103119#0" to="121662134"/>
    <trip id="moto82" type="moto_motorcycle" depart="533.87" departLane="best" from="-121662168#2" to="52171550#5"/>
    <trip id="moto83" type="moto_motorcycle" depart="540.38" departLane="best" from="-152828493" to="-137729259#1"/>
    <trip id="moto84" type="moto_motorcycle" depart="546.89" departLane="best" from="-362754059" to="-137729111#0"/>
    <trip id="moto85" type="moto_motorcycle" depart="553.40" departLane="best" from="-203342432#1" to="68663924"/>
    <trip id="moto86" type="moto_motorcycle" depart="559.91" departLane="best" from="51203130#5" to="95141633#2"/>
    <trip id="moto87" type="moto_motorcycle" depart="566.42" departLane="best" from="-105885548" to="362101859"/>
    <trip id="moto88" type="moto_motorcycle" depart="572.93" departLane="best" from="-540229708#0" to="68663946#1"/>
    <trip id="moto89" type="moto_motorcycle" depart="579.44" departLane="best" from="51201550#2" to="51203130#1"/>
    <trip id="moto90" type="moto_motorcycle" depart="585.95" departLane="best" from="51202070#6" to="-50885124#1"/>
    <trip id="moto91" type="moto_motorcycle" depart="592.46" departLane="best" from="384435726#0" to="-137729142#0"/>
    <trip id="moto92" type="moto_motorcycle" depart="598.97" departLane="best" from="-362103125" to="51202070#6"/>
    <trip id="moto93" type="moto_motorcycle" depart="605.48" departLane="best" from="105885556#0" to="-51203130#0"/>
    <trip id="moto94" type="moto_motorcycle" depart="611.99" departLane="best" from="50885124#5" to="-362103126"/>
    <trip id="moto95" type="moto_motorcycle" depart="618.50" departLane="best" from="-105885547" to="-307820912#0"/>
    <trip id="moto96" type="moto_motorcycle" depart="625.01" departLane="best" from="95141099#3" to="-51202070#6"/>
    <trip id="moto97" type="moto_motorcycle" depart="631.52" departLane="best" from="171143093" to="-95141633#0"/>
    <trip id="moto98" type="moto_motorcycle" depart="638.04" departLane="best" from="-137729155#2" to="104691254"/>
    <trip id="moto99" type="moto_motorcycle" depart="644.55" departLane="best" from="362101722#1" to="-51503412#0"/>
    <trip id="moto100" type="moto_motorcycle" depart="651.06" departLane="best" from="-95141633#0" to="137729104#1"/>
    <trip id="moto101" type="moto_motorcycle" depart="657.57" departLane="best" from="-362758239" to="307820912#3"/>
    <trip id="moto102" type="moto_motorcycle" depart="664.08" departLane="best" from="121662124#1" to="309183433"/>
    <trip id="moto103" type="moto_motorcycle" depart="670.59" departLane="best" from="362103119#1" to="209439854"/>
    <trip id="moto104" type="moto_motorcycle" depart="677.10" departLane="best" from="359890083" to="-51203068#1"/>
    <trip id="moto105" type="moto_motorcycle" depart="683.61" departLane="best" from="-95161515#1" to="-51202959#2"/>
    <trip id="moto106" type="moto_motorcycle" depart="690.12" departLane="best" from="-1022579542#0" to="-51202644"/>
    <trip id="moto107" type="moto_motorcycle" depart="696.63" departLane="best" from="105464624" to="137729106#3"/>
    <trip id="moto108" type="moto_motorcycle" depart="703.14" departLane="best" from="205706910" to="105885547"/>
    <trip id="moto109" type="moto_motorcycle" depart="709.65" departLane="best" from="105885528#0" to="-362101859"/>
    <trip id="moto110" type="moto_motorcycle" depart="716.16" departLane="best" from="137729443#0" to="-52171551"/>
    <trip id="moto111" type="moto_motorcycle" depart="722.67" departLane="best" from="-362753657" to="105885557#0"/>
    <trip id="moto112" type="moto_motorcycle" depart="729.18" departLane="best" from="51203053#5" to="-121662168#0"/>
    <trip id="moto113" type="moto_motorcycle" depart="735.69" departLane="best" from="104690502#0" to="137729315#1"/>
    <trip id="moto114" type="moto_motorcycle" depart="742.20" departLane="best" from="-307820912#6" to="209788846"/>
    <trip id="moto115" type="moto_motorcycle" depart="748.71" departLane="best" from="209439842" to="-104690502#0"/>
    <trip id="moto116" type="moto_motorcycle" depart="755.23" departLane="best" from="-137729155#0" to="104690502#0"/>
    <trip id="moto117" type="moto_motorcycle" depart="761.74" departLane="best" from="1111186756" to="-121169535#0"/>
    <trip id="moto118" type="moto_motorcycle" depart="768.25" departLane="best" from="-362754056" to="51202967#1"/>
    <trip id="moto119" type="moto_motorcycle" depart="774.76" departLane="best" from="209446988#1" to="95161509#0"/>
    <trip id="moto120" type="moto_motorcycle" depart="781.27" departLane="best" from="137729195" to="749618915"/>
    <trip id="moto121" type="moto_motorcycle" depart="787.78" departLane="best" from="52171551" to="137729198#3"/>
    <trip id="moto122" type="moto_motorcycle" depart="794.29" departLane="best" from="359890083" to="108487140#0"/>
    <trip id="moto123" type="moto_motorcycle" depart="800.80" departLane="best" from="121662124#3" to="-137729417#0"/>
    <trip id="moto124" type="moto_motorcycle" depart="807.31" departLane="best" from="307820912#2" to="-121662124#1"/>
    <trip id="moto125" type="moto_motorcycle" depart="813.82" departLane="best" from="104690503" to="-362101721#1"/>
    <trip id="moto126" type="moto_motorcycle" depart="820.33" departLane="best" from="104690507#2" to="540229721"/>
    <trip id="moto127" type="moto_motorcycle" depart="826.84" departLane="best" from="-95141101" to="-104690502#0"/>
    <trip id="moto128" type="moto_motorcycle" depart="833.35" departLane="best" from="-68663913#4" to="362103124"/>
    <trip id="moto129" type="moto_motorcycle" depart="839.86" departLane="best" from="51203068#0" to="891019868"/>
    <trip id="moto130" type="moto_motorcycle" depart="846.37" departLane="best" from="104690507#1" to="362103119#3"/>
    <trip id="moto131" type="moto_motorcycle" depart="852.88" departLane="best" from="121662164#1" to="137729197#0"/>
    <trip id="moto132" type="moto_motorcycle" depart="859.39" departLane="best" from="-362103123" to="-362102612"/>
    <trip id="moto133" type="moto_motorcycle" depart="865.90" departLane="best" from="137729329" to="-107824325#1"/>
    <trip id="moto134" type="moto_motorcycle" depart="872.42" departLane="best" from="952053659" to="-540229751"/>
    <trip id="moto135" type="moto_motorcycle" depart="878.93" departLane="best" from="205706906#1" to="362754059"/>
    <trip id="moto136" type="moto_motorcycle" depart="885.44" departLane="best" departSpeed="max" from="205706907" to="362103125"/>
    <trip id="moto137" type="moto_motorcycle" depart="891.95" departLane="best" from="137612525" to="-362102190"/>
    <trip id="moto138" type="moto_motorcycle" depart="898.46" departLane="best" departSpeed="max" from="306056612" to="362103196"/>
    <trip id="moto139" type="moto_motorcycle" depart="904.97" departLane="best" from="-209446984" to="137729197#6"/>
    <trip id="moto140" type="moto_motorcycle" depart="911.48" departLane="best" from="362103123" to="-137729177"/>
    <trip id="moto141" type="moto_motorcycle" depart="917.99" departLane="best" from="-137729155#1" to="-107824325#0"/>
    <trip id="moto142" type="moto_motorcycle" depart="924.50" departLane="best" from="309183209" to="-121662207"/>
    <trip id="moto143" type="moto_motorcycle" depart="931.01" departLane="best" departSpeed="max" from="-137729137" to="362753646"/>
    <trip id="moto144" type="moto_motorcycle" depart="937.52" departLane="best" from="105464622#0" to="-696015267"/>
    <trip id="moto145" type="moto_motorcycle" depart="944.03" departLane="best" from="51203053#4" to="51202343#2"/>
    <trip id="moto146" type="moto_motorcycle" depart="950.54" departLane="best" from="-137729142#2" to="95141099#3"/>
    <trip id="moto147" type="moto_motorcycle" depart="957.05" departLane="best" from="307820912#3" to="104691254"/>
    <trip id="moto148" type="moto_motorcycle" depart="963.56" departLane="best" from="362102052" to="95141631#1"/>
    <trip id="moto149" type="moto_motorcycle" depart="970.07" departLane="best" from="121662124#1" to="105885561"/>
    <trip id="moto150" type="moto_motorcycle" depart="976.58" departLane="best" from="105861367" to="362101721#1"/>
    <trip id="moto151" type="moto_motorcycle" depart="983.10" departLane="best" from="-50885124#6" to="51203053#2"/>
    <trip id="moto152" type="moto_motorcycle" depart="989.61" departLane="best" from="52171549" to="-362753654"/>
    <trip id="moto153" type="moto_motorcycle" depart="996.12" departLane="best" from="51203053#6" to="-209447006"/>
    <trip id="moto154" type="moto_motorcycle" depart="1002.63" departLane="best" from="-362102100" to="50885124#1"/>
    <trip id="moto155" type="moto_motorcycle" depart="1009.14" departLane="best" from="-540229751" to="52171550#2"/>
    <trip id="moto156" type="moto_motorcycle" depart="1015.65" departLane="best" from="108481303#1" to="384435708"/>
    <trip id="moto157" type="moto_motorcycle" depart="1022.16" departLane="best" from="-137729104#2" to="-362103120"/>
    <trip id="moto158" type="moto_motorcycle" depart="1028.67" departLane="best" departSpeed="max" from="214847748#0" to="-51203130#1"/>
    <trip id="moto159" type="moto_motorcycle" depart="1035.18" departLane="best" from="137729127#0" to="105885556#0"/>
    <trip id="moto160" type="moto_motorcycle" depart="1041.69" departLane="best" from="362103121" to="-52171550#3"/>
    <trip id="moto161" type="moto_motorcycle" depart="1048.20" departLane="best" from="307820910" to="-50885124#6"/>
    <trip id="moto162" type="moto_motorcycle" depart="1054.71" departLane="best" from="-307820912#4" to="-137729197#4"/>
    <trip id="moto163" type="moto_motorcycle" depart="1061.22" departLane="best" from="121662114" to="362103132"/>
    <trip id="moto164" type="moto_motorcycle" depart="1067.73" departLane="best" from="107833671" to="362101469"/>
    <trip id="moto165" type="moto_motorcycle" depart="1074.24" departLane="best" from="-209447001#3" to="-105885528#2"/>
    <trip id="moto166" type="moto_motorcycle" depart="1080.75" departLane="best" from="306056601#2" to="-137729259#0"/>
    <trip id="moto168" type="moto_motorcycle" depart="1093.77" departLane="best" departSpeed="max" from="105885559#0" to="105464620#2"/>
    <trip id="moto169" type="moto_motorcycle" depart="1100.29" departLane="best" from="51202344#1" to="-95141633#1"/>
    <trip id="moto170" type="moto_motorcycle" depart="1106.80" departLane="best" from="-121662168#1" to="137729315#1"/>
    <trip id="moto171" type="moto_motorcycle" depart="1113.31" departLane="best" from="95161509#4" to="-137729197#3"/>
    <trip id="moto172" type="moto_motorcycle" depart="1119.82" departLane="best" from="362753646" to="137729197#4"/>
    <trip id="moto173" type="moto_motorcycle" depart="1126.33" departLane="best" from="105885528#0" to="51203069#1"/>
    <trip id="moto174" type="moto_motorcycle" depart="1132.84" departLane="best" from="95161509#0" to="-51203130#0"/>
    <trip id="moto175" type="moto_motorcycle" depart="1139.35" departLane="best" from="-362101723#4" to="-362101723#1"/>
    <trip id="moto176" type="moto_motorcycle" depart="1145.86" departLane="best" from="209439852" to="-205706908"/>
    <trip id="moto177" type="moto_motorcycle" depart="1152.37" departLane="best" from="307820910" to="105885528#0"/>
    <trip id="moto178" type="moto_motorcycle" depart="1158.88" departLane="best" from="384435726#0" to="137729308"/>
    <trip id="moto179" type="moto_motorcycle" depart="1165.39" departLane="best" from="105464620#1" to="121662114"/>
    <trip id="moto180" type="moto_motorcycle" depart="1171.90" departLane="best" from="-209439855" to="-51203130#2"/>
    <trip id="moto181" type="moto_motorcycle" depart="1178.41" departLane="best" from="209788846" to="214847748#1"/>
    <trip id="moto182" type="moto_motorcycle" depart="1184.92" departLane="best" from="108487139#0" to="-121662234"/>
    <trip id="moto183" type="moto_motorcycle" depart="1191.43" departLane="best" from="-108487139#0" to="104690507#0"/>
    <trip id="moto184" type="moto_motorcycle" depart="1197.94" departLane="best" from="-52171551" to="-362754059"/>
    <trip id="moto185" type="moto_motorcycle" depart="1204.45" departLane="best" from="-137729104#0" to="95141101"/>
    <trip id="moto186" type="moto_motorcycle" depart="1210.96" departLane="best" from="736768979#0" to="952053659"/>
    <trip id="moto187" type="moto_motorcycle" depart="1217.48" departLane="best" from="-108487139#2" to="362103127#0"/>
    <trip id="moto188" type="moto_motorcycle" depart="1223.99" departLane="best" from="105885559#1" to="171142742#2"/>
    <trip id="moto189" type="moto_motorcycle" depart="1230.50" departLane="best" from="547492328#0" to="-209447006"/>
    <trip id="moto190" type="moto_motorcycle" depart="1237.01" departLane="best" from="137729142#2" to="137729329"/>
    <trip id="moto191" type="moto_motorcycle" depart="1243.52" departLane="best" from="209446994" to="51203068#0"/>
    <trip id="moto192" type="moto_motorcycle" depart="1250.03" departLane="best" departSpeed="max" from="-51202841#2" to="736768978#6"/>
    <trip id="moto193" type="moto_motorcycle" depart="1256.54" departLane="best" from="95161506#0" to="205706905"/>
    <trip id="moto194" type="moto_motorcycle" depart="1263.05" departLane="best" from="121662127#1" to="-95166000#0"/>
    <trip id="moto195" type="moto_motorcycle" depart="1269.56" departLane="best" from="362103130" to="137729308"/>
    <trip id="moto196" type="moto_motorcycle" depart="1276.07" departLane="best" from="362103134" to="-362101471#1"/>
    <trip id="moto197" type="moto_motorcycle" depart="1282.58" departLane="best" from="105885518" to="209788847"/>
    <trip id="moto198" type="moto_motorcycle" depart="1289.09" departLane="best" from="121662215" to="-137729104#2"/>
    <trip id="moto199" type="moto_motorcycle" depart="1295.60" departLane="best" from="105885556#1" to="-137729197#1"/>
    <trip id="moto200" type="moto_motorcycle" depart="1302.11" departLane="best" from="51202432#1" to="108481303#0"/>
    <trip id="moto201" type="moto_motorcycle" depart="1308.62" departLane="best" from="309183210" to="108526596#0"/>
    <trip id="moto202" type="moto_motorcycle" depart="1315.13" departLane="best" from="-51202070#3" to="51202429#0"/>
    <trip id="moto203" type="moto_motorcycle" depart="1321.64" departLane="best" from="68663913#1" to="108526596#0"/>
    <trip id="moto204" type="moto_motorcycle" depart="1328.15" departLane="best" from="-51202432#0" to="-51202967#1"/>
    <trip id="moto205" type="moto_motorcycle" depart="1334.67" departLane="best" from="108480207" to="-171143107"/>
    <trip id="moto206" type="moto_motorcycle" depart="1341.18" departLane="best" from="121662124#1" to="-52986127"/>
    <trip id="moto207" type="moto_motorcycle" depart="1347.69" departLane="best" from="-307820912#0" to="209788847"/>
    <trip id="moto208" type="moto_motorcycle" depart="1354.20" departLane="best" from="362103120" to="307820910"/>
    <trip id="moto209" type="moto_motorcycle" depart="1360.71" departLane="best" from="51202070#7" to="-749618914#0"/>
    <trip id="moto210" type="moto_motorcycle" depart="1367.22" departLane="best" from="209439858" to="51202343#0"/>
    <trip id="moto211" type="moto_motorcycle" depart="1373.73" departLane="best" from="205706910" to="-205706905"/>
    <trip id="moto212" type="moto_motorcycle" depart="1380.24" departLane="best" departSpeed="max" from="105885559#0" to="95141631#4"/>
    <trip id="moto213" type="moto_motorcycle" depart="1386.75" departLane="best" from="-540229721" to="209447006"/>
    <trip id="moto214" type="moto_motorcycle" depart="1393.26" departLane="best" from="205706906#1" to="51203053#3"/>
    <trip id="moto215" type="moto_motorcycle" depart="1399.77" departLane="best" from="51203053#7" to="51203069#0"/>
    <trip id="moto216" type="moto_motorcycle" depart="1406.28" departLane="best" from="359890082" to="362103129"/>
    <trip id="moto217" type="moto_motorcycle" depart="1412.79" departLane="best" from="362103122" to="104690507#2"/>
    <trip id="moto218" type="moto_motorcycle" depart="1419.30" departLane="best" from="-137729111#1" to="137729326"/>
    <trip id="moto219" type="moto_motorcycle" depart="1425.81" departLane="best" from="-108526597" to="422954289"/>
    <trip id="moto220" type="moto_motorcycle" depart="1432.32" departLane="best" from="-51202967#0" to="-736768978#0"/>
    <trip id="moto221" type="moto_motorcycle" depart="1438.83" departLane="best" departSpeed="max" from="51503414#0" to="137729217#2"/>
    <trip id="moto222" type="moto_motorcycle" depart="1445.35" departLane="best" from="-137729417#0" to="105885534"/>
    <trip id="moto223" type="moto_motorcycle" depart="1451.86" departLane="best" from="-362758238#0" to="-362758239"/>
    <trip id="moto224" type="moto_motorcycle" depart="1458.37" departLane="best" departSpeed="max" from="-104690502#1" to="51201441#0"/>
    <trip id="moto225" type="moto_motorcycle" depart="1464.88" departLane="best" from="-205706909" to="105464622#0"/>
    <trip id="moto226" type="moto_motorcycle" depart="1471.39" departLane="best" departSpeed="max" from="-684254226" to="137729142#0"/>
    <trip id="moto227" type="moto_motorcycle" depart="1477.90" departLane="best" from="171142742#1" to="104690500"/>
    <trip id="moto228" type="moto_motorcycle" depart="1484.41" departLane="best" from="-362754059" to="51202959#1"/>
    <trip id="moto229" type="moto_motorcycle" depart="1490.92" departLane="best" from="-362101471#0" to="-749618912"/>
    <trip id="moto230" type="moto_motorcycle" depart="1497.43" departLane="best" from="137729106#1" to="137729103#3"/>
    <trip id="moto231" type="moto_motorcycle" depart="1503.94" departLane="best" from="95161509#2" to="-51202959#1"/>
    <trip id="moto232" type="moto_motorcycle" depart="1510.45" departLane="best" from="95141631#7" to="205706905"/>
    <trip id="moto233" type="moto_motorcycle" depart="1516.96" departLane="best" from="-1103858919#2" to="137729197#6"/>
    <trip id="moto234" type="moto_motorcycle" depart="1523.47" departLane="best" from="108487140#0" to="540229721"/>
    <trip id="moto235" type="moto_motorcycle" depart="1529.98" departLane="best" departSpeed="max" from="137729208#0" to="-547492323"/>
    <trip id="moto236" type="moto_motorcycle" depart="1536.49" departLane="best" from="152828493" to="137729259#0"/>
    <trip id="moto237" type="moto_motorcycle" depart="1543.00" departLane="best" from="209446999" to="359890083"/>
    <trip id="moto238" type="moto_motorcycle" depart="1549.51" departLane="best" from="209439851" to="51202432#1"/>
    <trip id="moto239" type="moto_motorcycle" depart="1556.02" departLane="best" from="203342432#1" to="-51203130#4"/>
    <trip id="moto240" type="moto_motorcycle" depart="1562.54" departLane="best" from="105885526" to="137729106#2"/>