<?xml version="1.0" encoding="UTF-8"?>

<!-- generated on 2022-11-17 16:51:52 by Eclipse SUMO netconvert Version 1.14.0
<configuration xmlns:xsi="http://www.w3.org/2001/XMLSchema-instance" xsi:noNamespaceSchemaLocation="http://sumo.dlr.de/xsd/netconvertConfiguration.xsd">

    <input>
        <type-files value="/usr/share/sumo/data/typemap/osmNetconvert.typ.xml"/>
        <osm-files value="osm_bbox.osm.xml.gz"/>
    </input>

    <output>
        <output-file value="osm.net.xml"/>
        <output.street-names value="true"/>
        <output.original-names value="true"/>
        <ptstop-output value="osm_stops.add.xml"/>
        <ptline-output value="osm_ptlines.xml"/>
    </output>

    <projection>
        <proj value="+proj=merc +a=6378137 +b=6378137 +lat_ts=0.0 +lon_0=0.0 +x_0=0.0 +y_0=0 +k=1.0 +units=m +nadgrids=@null +wktext +no_defs"/>
    </projection>

    <processing>
        <geometry.remove value="true"/>
        <roundabouts.guess value="true"/>
    </processing>

    <tls_building>
        <tls.discard-simple value="true"/>
        <tls.join value="true"/>
        <tls.guess-signals value="true"/>
        <tls.default-type value="actuated"/>
    </tls_building>

    <ramp_guessing>
        <ramps.guess value="true"/>
    </ramp_guessing>

    <junctions>
        <junctions.join value="true"/>
        <junctions.corner-detail value="5"/>
    </junctions>

    <railway>
        <railway.topology.repair value="true"/>
    </railway>

    <report>
        <verbose value="true"/>
    </report>

</configuration>
-->

<additional xmlns:xsi="http://www.w3.org/2001/XMLSchema-instance" xsi:noNamespaceSchemaLocation="http://sumo.dlr.de/xsd/additional_file.xsd">
    <busStop id="4796000047" name="Trofa" lane="384435607#1_0" startPos="266.22" endPos="466.22" friendlyPos="true" lines="IC LSA=&gt;GUS U PSB-GUS U PSB-BRA">
        <access lane="-121169582_0" pos="53.60" length="80.22" friendlyPos="1"/>
        <access lane="-696015268_0" pos="103.69" length="96.73" friendlyPos="1"/>
        <access lane="1111186755-AddedOnRampEdge_0" pos="32.60" length="103.74" friendlyPos="1"/>
        <access lane="121169582_0" pos="51.94" length="85.02" friendlyPos="1"/>
        <access lane="696015268_0" pos="11.16" length="91.73" friendlyPos="1"/>
    </busStop>
</additional>
