<?xml version="1.0" encoding="UTF-8"?>

<!-- generated on 2022-11-17 16:51:52.982026 by $Id: ptlines2flows.py v1_3_1+0313-ccb31df3eb jakob.erdmann@dlr.de 2019-09-02 13:26:32 +0200 $ UNKNOWN
  options: 
-->

<routes xmlns:xsi="http://www.w3.org/2001/XMLSchema-instance" xsi:noNamespaceSchemaLocation="http://sumo.dlr.de/xsd/routes_file.xsd">
    <vType id="pt_bus" vClass="bus" speedFactor="0.95"/>
    <vType id="pt_tram" vClass="tram" speedFactor="1.0"/>
    <vType id="pt_train" vClass="rail"/>
    <vType id="pt_subway" vClass="rail_urban"/>
    <vType id="pt_light_rail" vClass="rail_urban"/>
    <vType id="pt_monorail" vClass="rail"/>
    <vType id="pt_trolleybus" vClass="bus" speedFactor="0.95"/>
    <vType id="pt_minibus" vClass="bus" speedFactor="0.95"/>
    <vType id="pt_share_taxi" vClass="taxi" speedFactor="0.95"/>
    <vType id="pt_aerialway" vClass="bus"/>
    <vType id="pt_ferry" vClass="ship"/>
    <trip id="0_train_IC_LSA=GUS:0" type="pt_train" depart="15" departLane="best" from="384435607#0" to="384435607#1">
        <stop busStop="4796000047" duration="30"/>
    </trip>
    <trip id="2_train_U_PSB-GUS:0" type="pt_train" depart="165" departLane="best" from="384435607#0" to="384435607#1">
        <stop busStop="4796000047" duration="30"/>
    </trip>
    <trip id="3_train_U_PSB-BRA:0" type="pt_train" depart="383" departLane="best" from="384435607#0" to="384435607#1">
        <stop busStop="4796000047" duration="30"/>
    </trip>
</routes>
