<configuration>
    <net-file value="C:\Users\anaio\Documents\FEUP\trasmapy\examples\busLane\network.net.xml"/>
</configuration>
