<?xml version="1.0" encoding="UTF-8"?>

<!-- generated on 2022-11-17 16:25:08 by Eclipse SUMO netedit Version 1.14.0
<configuration xmlns:xsi="http://www.w3.org/2001/XMLSchema-instance" xsi:noNamespaceSchemaLocation="http://sumo.dlr.de/xsd/netconvertConfiguration.xsd">

    <input>
        <sumo-net-file value="/home/joao/Documents/UniStuff/5_1things/MS/TraSMAPy/examples/simple/hello.net.xml"/>
    </input>

    <output>
        <output-file value="/home/joao/Documents/UniStuff/5_1things/MS/TraSMAPy/examples/simple/hello.net.xml"/>
    </output>

    <processing>
        <geometry.min-radius.fix.railways value="false"/>
        <geometry.max-grade.fix value="false"/>
        <offset.disable-normalization value="true"/>
        <lefthand value="false"/>
    </processing>

    <junctions>
        <no-turnarounds value="true"/>
        <junctions.corner-detail value="5"/>
        <junctions.limit-turn-speed value="5.5"/>
        <rectangular-lane-cut value="false"/>
    </junctions>

    <pedestrian>
        <walkingareas value="false"/>
    </pedestrian>

    <netedit>
        <additional-files value="/home/joao/Documents/UniStuff/5_1things/MS/TraSMAPy/examples/simple/hello.additionals.xml"/>
    </netedit>

</configuration>
-->

<net version="1.9" junctionCornerDetail="5" limitTurnSpeed="5.50" xmlns:xsi="http://www.w3.org/2001/XMLSchema-instance" xsi:noNamespaceSchemaLocation="http://sumo.dlr.de/xsd/net_file.xsd">

    <location netOffset="250.00,0.00" convBoundary="0.00,0.00,501.00,0.00" origBoundary="-250.00,0.00,251.00,0.00" projParameter="!"/>

    <edge id=":2_0" function="internal">
        <lane id=":2_0_0" index="0" speed="13.89" length="6.40" shape="496.00,-1.60 502.40,-1.60"/>
    </edge>

    <edge id="1to2" from="1" to="2" priority="-1">
        <lane id="1to2_0" index="0" speed="13.89" length="496.00" shape="0.00,-8.00 496.00,-8.00"/>
        <lane id="1to2_1" index="1" speed="13.89" length="496.00" shape="0.00,-4.80 496.00,-4.80"/>
        <lane id="1to2_2" index="2" speed="13.89" length="496.00" shape="0.00,-1.60 496.00,-1.60"/>
    </edge>
    <edge id="out" from="2" to="3" priority="-1">
        <lane id="out_0" index="0" speed="13.89" length="0.20" shape="502.40,-1.60 502.60,-1.60"/>
    </edge>

    <junction id="1" type="dead_end" x="0.00" y="0.00" incLanes="" intLanes="" shape="0.00,0.00 0.00,-9.60"/>
    <junction id="2" type="priority" x="500.00" y="0.00" incLanes="1to2_0 1to2_1 1to2_2" intLanes=":2_0_0" shape="504.00,0.00 504.00,-3.20 496.00,-9.60 496.00,0.00">
        <request index="0" response="0" foes="0" cont="0"/>
    </junction>
    <junction id="3" type="dead_end" x="501.00" y="0.00" incLanes="out_0" intLanes="" shape="501.00,-3.20 501.00,0.00"/>

    <connection from="1to2" to="out" fromLane="2" toLane="0" via=":2_0_0" dir="s" state="M"/>

    <connection from=":2_0" to="out" fromLane="0" toLane="0" dir="s" state="M"/>

</net>
